
     RDKit          3D

  4  3  0  0  0  0  0  0  0  0999 V2000
   -0.0890    0.8091    0.8081 R   0  0  0  0  0  1  0  0  0  0  0  0
   -0.0418    0.1002    0.3614 N   0  0  0  0  0  4  0  0  0  0  0  0
   -1.0400   -0.5689    0.1048 O   0  0  0  0  0  0  0  0  0  0  0  0
    1.1709   -0.3404   -0.1036 O   0  0  0  0  0  1  0  0  0  0  0  0
  1  2  1  0
  2  3  2  0
  2  4  1  0
M  CHG  2   2   1   4  -1
M  END
