
     RDKit          3D

  4  3  0  0  0  0  0  0  0  0999 V2000
   -1.4879    0.3174    0.3841 R   0  0  0  0  0  1  0  0  0  0  0  0
   -0.5907    0.1161    0.1387 C   0  0  0  0  0  0  0  0  0  0  0  0
    0.5432   -0.1202   -0.1678 C   0  0  0  0  0  0  0  0  0  0  0  0
    1.5353   -0.3134   -0.4481 H   0  0  0  0  0  0  0  0  0  0  0  0
  1  2  1  0
  2  3  3  0
  3  4  1  0
M  END
