
     RDKit          3D

 13 13  0  0  0  0  0  0  0  0999 V2000
    4.0924   -1.2977   -0.0693 R   0  0  0  0  0  1  0  0  0  0  0  0
    2.9675   -0.9115   -0.0254 C   0  0  0  0  0  0  0  0  0  0  0  0
    1.9106   -0.5341    0.0300 C   0  0  0  0  0  0  0  0  0  0  0  0
    0.5824   -0.0376    0.1133 C   0  0  0  0  0  0  0  0  0  0  0  0
   -0.4366   -0.7709   -0.4503 C   0  0  0  0  0  0  0  0  0  0  0  0
   -1.7274   -0.3249   -0.3897 C   0  0  0  0  0  0  0  0  0  0  0  0
   -1.9738    0.8725    0.2483 C   0  0  0  0  0  0  0  0  0  0  0  0
   -0.9812    1.5963    0.8027 N   0  0  0  0  0  0  0  0  0  0  0  0
    0.2817    1.1531    0.7396 C   0  0  0  0  0  0  0  0  0  0  0  0
   -0.2659   -1.7229   -0.9613 H   0  0  0  0  0  0  0  0  0  0  0  0
   -2.5380   -0.9178   -0.8434 H   0  0  0  0  0  0  0  0  0  0  0  0
   -3.0055    1.1852    0.2721 H   0  0  0  0  0  0  0  0  0  0  0  0
    1.0938    1.7101    1.1732 H   0  0  0  0  0  0  0  0  0  0  0  0
  1  2  1  0
  2  3  3  0
  3  4  1  0
  4  5  2  0
  5  6  1  0
  6  7  2  0
  7  8  1  0
  8  9  2  0
  9  4  1  0
  5 10  1  0
  6 11  1  0
  7 12  1  0
  9 13  1  0
M  END
