
     RDKit          3D

 19 19  0  0  0  0  0  0  0  0999 V2000
    2.7636    1.3418   -0.0671 R   0  0  0  0  0  1  0  0  0  0  0  0
    2.4819    0.2896   -0.3068 C   0  0  0  0  0  0  0  0  0  0  0  0
    3.4213   -0.3255   -0.7089 O   0  0  0  0  0  0  0  0  0  0  0  0
    1.1497    0.0773   -0.0525 N   0  0  0  0  0  0  0  0  0  0  0  0
    0.3091    1.1388    0.4561 C   0  0  0  0  0  0  0  0  0  0  0  0
   -1.0423    1.1519   -0.2157 C   0  0  0  0  0  0  0  0  0  0  0  0
   -1.7518   -0.1469   -0.0232 C   0  0  0  0  0  0  0  0  0  0  0  0
   -0.8529   -1.2945    0.3082 C   0  0  0  0  0  0  0  0  0  0  0  0
    0.5281   -1.1861   -0.2729 C   0  0  0  0  0  0  0  0  0  0  0  0
    0.1455    0.9235    1.5297 H   0  0  0  0  0  0  0  0  0  0  0  0
    0.7747    2.1317    0.3055 H   0  0  0  0  0  0  0  0  0  0  0  0
   -1.6336    1.9622    0.2796 H   0  0  0  0  0  0  0  0  0  0  0  0
   -0.9727    1.4301   -1.2884 H   0  0  0  0  0  0  0  0  0  0  0  0
   -2.5144   -0.0639    0.7831 H   0  0  0  0  0  0  0  0  0  0  0  0
   -2.3407   -0.3706   -0.9564 H   0  0  0  0  0  0  0  0  0  0  0  0
   -0.7784   -1.3714    1.4215 H   0  0  0  0  0  0  0  0  0  0  0  0
   -1.3128   -2.2144   -0.1088 H   0  0  0  0  0  0  0  0  0  0  0  0
    0.4802   -1.4986   -1.3351 H   0  0  0  0  0  0  0  0  0  0  0  0
    1.1456   -1.9752    0.2517 H   0  0  0  0  0  0  0  0  0  0  0  0
  1  2  1  0
  2  3  2  0
  2  4  1  0
  4  5  1  0
  5  6  1  0
  6  7  1  0
  7  8  1  0
  8  9  1  0
  9  4  1  0
  5 10  1  0
  5 11  1  0
  6 12  1  0
  6 13  1  0
  7 14  1  0
  7 15  1  0
  8 16  1  0
  8 17  1  0
  9 18  1  0
  9 19  1  0
M  END
