
     RDKit          3D

 15 14  0  0  0  0  0  0  0  0999 V2000
    3.0090   -0.7139   -0.1122 R   0  0  0  0  0  1  0  0  0  0  0  0
    2.1804   -0.4548   -0.5791 C   0  0  0  0  0  0  0  0  0  0  0  0
    2.2606   -0.3219   -1.7736 O   0  0  0  0  0  0  0  0  0  0  0  0
    1.0655   -0.2922    0.2518 N   0  0  0  0  0  0  0  0  0  0  0  0
   -0.2331    0.0916   -0.3047 C   0  0  0  0  0  0  0  0  0  0  0  0
   -1.2664   -0.9438    0.0925 C   0  0  0  0  0  0  0  0  0  0  0  0
   -0.7094    1.3863    0.3595 C   0  0  0  0  0  0  0  0  0  0  0  0
    1.0848   -0.4284    1.2849 H   0  0  0  0  0  0  0  0  0  0  0  0
   -0.1743    0.2177   -1.4059 H   0  0  0  0  0  0  0  0  0  0  0  0
   -1.0466   -1.2567    1.1255 H   0  0  0  0  0  0  0  0  0  0  0  0
   -2.2907   -0.4839    0.1230 H   0  0  0  0  0  0  0  0  0  0  0  0
   -1.2936   -1.7601   -0.6382 H   0  0  0  0  0  0  0  0  0  0  0  0
   -1.7199    1.5950   -0.0525 H   0  0  0  0  0  0  0  0  0  0  0  0
   -0.8658    1.1513    1.4376 H   0  0  0  0  0  0  0  0  0  0  0  0
   -0.0004    2.2137    0.1914 H   0  0  0  0  0  0  0  0  0  0  0  0
  1  2  1  0
  2  3  2  0
  2  4  1  0
  4  5  1  0
  5  6  1  0
  5  7  1  0
  4  8  1  0
  5  9  1  0
  6 10  1  0
  6 11  1  0
  6 12  1  0
  7 13  1  0
  7 14  1  0
  7 15  1  0
M  END
