
     RDKit          3D

  8  7  0  0  0  0  0  0  0  0999 V2000
    2.2178   -0.5803   -0.0740 R   0  0  0  0  0  1  0  0  0  0  0  0
    1.3555   -0.0146   -0.0005 C   0  0  0  0  0  0  0  0  0  0  0  0
    1.4853    1.1658    0.1706 O   0  0  0  0  0  0  0  0  0  0  0  0
    0.2200   -0.7057   -0.1104 O   0  0  0  0  0  0  0  0  0  0  0  0
   -1.0402   -0.0704   -0.0305 C   0  0  0  0  0  0  0  0  0  0  0  0
   -1.5367   -0.4584    0.8823 H   0  0  0  0  0  0  0  0  0  0  0  0
   -1.7113   -0.3523   -0.8749 H   0  0  0  0  0  0  0  0  0  0  0  0
   -0.9902    1.0158    0.0374 H   0  0  0  0  0  0  0  0  0  0  0  0
  1  2  1  0
  2  3  2  0
  2  4  1  0
  4  5  1  0
  5  6  1  0
  5  7  1  0
  5  8  1  0
M  END
