
     RDKit          3D

 14 14  0  0  0  0  0  0  0  0999 V2000
   -2.3044   -1.6308    0.8288 R   0  0  0  0  0  1  0  0  0  0  0  0
   -2.1096   -0.6260    0.8834 C   0  0  0  0  0  0  0  0  0  0  0  0
   -3.0017    0.0380    1.3905 O   0  0  0  0  0  0  0  0  0  0  0  0
   -0.8418   -0.2397    0.3539 C   0  0  0  0  0  0  0  0  0  0  0  0
   -0.4278    1.0741    0.3518 C   0  0  0  0  0  0  0  0  0  0  0  0
    0.7968    1.4300   -0.1621 C   0  0  0  0  0  0  0  0  0  0  0  0
    1.6698    0.4947   -0.6994 C   0  0  0  0  0  0  0  0  0  0  0  0
    3.2321    0.9701   -1.3518 Cl  0  0  0  0  0  0  0  0  0  0  0  0
    1.2534   -0.8206   -0.6963 C   0  0  0  0  0  0  0  0  0  0  0  0
    0.0249   -1.1703   -0.1797 C   0  0  0  0  0  0  0  0  0  0  0  0
   -1.1228    1.7882    0.7750 H   0  0  0  0  0  0  0  0  0  0  0  0
    1.1248    2.4540   -0.1663 H   0  0  0  0  0  0  0  0  0  0  0  0
    1.9457   -1.5454   -1.1198 H   0  0  0  0  0  0  0  0  0  0  0  0
   -0.2394   -2.2162   -0.2081 H   0  0  0  0  0  0  0  0  0  0  0  0
  1  2  1  0
  2  3  2  0
  2  4  1  0
  4  5  2  0
  5  6  1  0
  6  7  2  0
  7  8  1  0
  7  9  1  0
  9 10  2  0
 10  4  1  0
  5 11  1  0
  6 12  1  0
  9 13  1  0
 10 14  1  0
M  END
