
     RDKit          3D

 14 14  0  0  0  0  0  0  0  0999 V2000
    2.5624   -1.2895    0.2797 R   0  0  0  0  0  1  0  0  0  0  0  0
    2.2871   -0.1828   -0.0072 C   0  0  0  0  0  0  0  0  0  0  0  0
    3.2784    0.4046   -0.1871 O   0  0  0  0  0  0  0  0  0  0  0  0
    0.8971   -0.0684   -0.0037 C   0  0  0  0  0  0  0  0  0  0  0  0
    0.2749    1.1627   -0.3151 C   0  0  0  0  0  0  0  0  0  0  0  0
   -1.0819    1.2736   -0.3115 C   0  0  0  0  0  0  0  0  0  0  0  0
   -1.9109    0.2211   -0.0121 C   0  0  0  0  0  0  0  0  0  0  0  0
   -1.3169   -0.9768    0.2912 C   0  0  0  0  0  0  0  0  0  0  0  0
    0.0402   -1.1157    0.2950 C   0  0  0  0  0  0  0  0  0  0  0  0
    0.9783    1.9604   -0.5438 H   0  0  0  0  0  0  0  0  0  0  0  0
   -1.5041    2.2372   -0.5568 H   0  0  0  0  0  0  0  0  0  0  0  0
   -3.0078    0.3264   -0.0134 H   0  0  0  0  0  0  0  0  0  0  0  0
   -1.9242   -1.8349    0.5335 H   0  0  0  0  0  0  0  0  0  0  0  0
    0.4275   -2.1179    0.5514 H   0  0  0  0  0  0  0  0  0  0  0  0
  1  2  1  0
  2  3  2  0
  2  4  1  0
  4  5  2  0
  5  6  1  0
  6  7  2  0
  7  8  1  0
  8  9  2  0
  9  4  1  0
  5 10  1  0
  6 11  1  0
  7 12  1  0
  8 13  1  0
  9 14  1  0
M  END
