
     RDKit          3D

 21 21  0  0  0  0  0  0  0  0999 V2000
    3.1315    1.2974    0.0669 R   0  0  0  0  0  1  0  0  0  0  0  0
    2.7795    0.5232    0.2250 C   0  0  0  0  0  0  0  0  0  0  0  0
    3.5106   -0.3024    0.8198 O   0  0  0  0  0  0  0  0  0  0  0  0
    1.4737    0.1693   -0.1437 N   0  0  0  0  0  0  0  0  0  0  0  0
    0.5600    1.0586   -0.8329 C   0  0  0  0  0  0  0  0  0  0  0  0
   -0.6401    1.1921    0.0738 C   0  0  0  0  0  0  0  0  0  0  0  0
   -1.2023   -0.0056    0.5197 N   0  0  0  0  0  0  0  0  0  0  0  0
   -2.5018   -0.2036   -0.0966 C   0  0  0  0  0  0  0  0  0  0  0  0
   -0.4626   -1.1837    0.5496 C   0  0  0  0  0  0  0  0  0  0  0  0
    0.9680   -1.1428    0.1592 C   0  0  0  0  0  0  0  0  0  0  0  0
    0.9978    2.0619   -0.9876 H   0  0  0  0  0  0  0  0  0  0  0  0
    0.2000    0.6019   -1.7847 H   0  0  0  0  0  0  0  0  0  0  0  0
   -0.3207    1.8981    0.8961 H   0  0  0  0  0  0  0  0  0  0  0  0
   -1.3928    1.8008   -0.5106 H   0  0  0  0  0  0  0  0  0  0  0  0
   -2.8384   -1.2317    0.2026 H   0  0  0  0  0  0  0  0  0  0  0  0
   -2.3879   -0.0951   -1.1753 H   0  0  0  0  0  0  0  0  0  0  0  0
   -3.1751    0.5671    0.3495 H   0  0  0  0  0  0  0  0  0  0  0  0
   -0.9625   -1.9670   -0.0971 H   0  0  0  0  0  0  0  0  0  0  0  0
   -0.5367   -1.6326    1.5862 H   0  0  0  0  0  0  0  0  0  0  0  0
    1.1797   -1.7688   -0.7609 H   0  0  0  0  0  0  0  0  0  0  0  0
    1.6202   -1.6374    0.9410 H   0  0  0  0  0  0  0  0  0  0  0  0
  1  2  1  0
  2  3  2  0
  2  4  1  0
  4  5  1  0
  5  6  1  0
  6  7  1  0
  7  8  1  0
  7  9  1  0
  9 10  1  0
 10  4  1  0
  5 11  1  0
  5 12  1  0
  6 13  1  0
  6 14  1  0
  8 15  1  0
  8 16  1  0
  8 17  1  0
  9 18  1  0
  9 19  1  0
 10 20  1  0
 10 21  1  0
M  END
