
     RDKit          3D

 16 16  0  0  0  0  0  0  0  0999 V2000
   -3.6346    0.3598   -0.2262 R   0  0  0  0  0  1  0  0  0  0  0  0
   -2.7905    0.3473    0.0036 C   0  0  0  0  0  0  0  0  0  0  0  0
   -2.5535    0.7675    1.1605 O   0  0  0  0  0  0  0  0  0  0  0  0
   -1.7420   -0.1055   -0.8386 N   0  0  0  0  0  0  0  0  0  0  0  0
   -0.3991   -0.0893   -0.3802 C   0  0  0  0  0  0  0  0  0  0  0  0
    0.4296    0.9970   -0.5596 C   0  0  0  0  0  0  0  0  0  0  0  0
    1.7396    1.0047   -0.1089 C   0  0  0  0  0  0  0  0  0  0  0  0
    2.2793   -0.0810    0.5446 C   0  0  0  0  0  0  0  0  0  0  0  0
    1.4576   -1.1689    0.7271 C   0  0  0  0  0  0  0  0  0  0  0  0
    0.1426   -1.1742    0.2737 C   0  0  0  0  0  0  0  0  0  0  0  0
   -1.9493   -0.4539   -1.8012 H   0  0  0  0  0  0  0  0  0  0  0  0
    0.0053    1.8572   -1.0762 H   0  0  0  0  0  0  0  0  0  0  0  0
    2.3274    1.8887   -0.2849 H   0  0  0  0  0  0  0  0  0  0  0  0
    3.3196   -0.0771    0.9034 H   0  0  0  0  0  0  0  0  0  0  0  0
    1.8620   -2.0348    1.2392 H   0  0  0  0  0  0  0  0  0  0  0  0
   -0.4942   -2.0376    0.4238 H   0  0  0  0  0  0  0  0  0  0  0  0
  1  2  1  0
  2  3  2  0
  2  4  1  0
  4  5  1  0
  5  6  2  0
  6  7  1  0
  7  8  2  0
  8  9  1  0
  9 10  2  0
 10  5  1  0
  4 11  1  0
  6 12  1  0
  7 13  1  0
  8 14  1  0
  9 15  1  0
 10 16  1  0
M  END
