
     RDKit          3D

 15 15  0  0  0  0  0  0  0  0999 V2000
   -3.5787    0.0303    0.0994 R   0  0  0  0  0  1  0  0  0  0  0  0
   -2.5651    0.0134    0.4718 C   0  0  0  0  0  0  0  0  0  0  0  0
   -2.4545   -0.1330    1.6434 O   0  0  0  0  0  0  0  0  0  0  0  0
   -1.6660    0.1742   -0.5721 N   0  0  0  0  0  0  0  0  0  0  0  0
   -0.2463    0.1801   -0.2814 C   0  0  0  0  0  0  0  0  0  0  0  0
    0.4577   -1.0062   -0.2968 C   0  0  0  0  0  0  0  0  0  0  0  0
    1.8257   -1.0051   -0.0173 C   0  0  0  0  0  0  0  0  0  0  0  0
    2.4413    0.1939    0.2692 C   0  0  0  0  0  0  0  0  0  0  0  0
    1.7467    1.3554    0.2831 N   0  0  0  0  0  0  0  0  0  0  0  0
    0.4141    1.3407    0.0091 C   0  0  0  0  0  0  0  0  0  0  0  0
   -2.0008    0.2883   -1.5438 H   0  0  0  0  0  0  0  0  0  0  0  0
   -0.0831   -1.9047   -0.5278 H   0  0  0  0  0  0  0  0  0  0  0  0
    2.3703   -1.9514   -0.0331 H   0  0  0  0  0  0  0  0  0  0  0  0
    3.5150    0.1603    0.4839 H   0  0  0  0  0  0  0  0  0  0  0  0
   -0.1764    2.2638    0.0123 H   0  0  0  0  0  0  0  0  0  0  0  0
  1  2  1  0
  2  3  2  0
  2  4  1  0
  4  5  1  0
  5  6  2  0
  6  7  1  0
  7  8  2  0
  8  9  1  0
  9 10  2  0
 10  5  1  0
  4 11  1  0
  6 12  1  0
  7 13  1  0
  8 14  1  0
 10 15  1  0
M  END
