
     RDKit          3D

 16 16  0  0  0  0  0  0  0  0999 V2000
    3.1345   -0.4444   -0.3455 R   0  0  0  0  0  1  0  0  0  0  0  0
    2.2797   -0.0829   -0.3724 C   0  0  0  0  0  0  0  0  0  0  0  0
    1.8894    0.3090   -1.4462 O   0  0  0  0  0  0  0  0  0  0  0  0
    1.5389   -0.0239    0.7941 N   0  0  0  0  0  0  0  0  0  0  0  0
    0.2262    0.4554    1.0583 C   0  0  0  0  0  0  0  0  0  0  0  0
   -0.8218   -0.2899    0.3569 C   0  0  0  0  0  0  0  0  0  0  0  0
   -0.8649   -0.2646   -1.1517 C   0  0  0  0  0  0  0  0  0  0  0  0
   -2.0411    0.1756   -0.2686 C   0  0  0  0  0  0  0  0  0  0  0  0
    2.0640   -0.4203    1.6663 H   0  0  0  0  0  0  0  0  0  0  0  0
    0.1812    1.5676    0.8047 H   0  0  0  0  0  0  0  0  0  0  0  0
    0.0546    0.3926    2.1774 H   0  0  0  0  0  0  0  0  0  0  0  0
   -0.8939   -1.3716    0.8058 H   0  0  0  0  0  0  0  0  0  0  0  0
   -0.5441    0.5441   -1.7927 H   0  0  0  0  0  0  0  0  0  0  0  0
   -0.9364   -1.2502   -1.6585 H   0  0  0  0  0  0  0  0  0  0  0  0
   -2.3674    1.2277   -0.2970 H   0  0  0  0  0  0  0  0  0  0  0  0
   -2.8990   -0.5243   -0.3311 H   0  0  0  0  0  0  0  0  0  0  0  0
  1  2  1  0
  2  3  2  0
  2  4  1  0
  4  5  1  0
  5  6  1  0
  6  7  1  0
  7  8  1  0
  8  6  1  0
  4  9  1  0
  5 10  1  0
  5 11  1  0
  6 12  1  0
  7 13  1  0
  7 14  1  0
  8 15  1  0
  8 16  1  0
M  END
