
     RDKit          3D

 15 14  0  0  0  0  0  0  0  0999 V2000
    2.6780    0.8275   -0.7011 R   0  0  0  0  0  1  0  0  0  0  0  0
    2.0503    0.2606   -0.5051 C   0  0  0  0  0  0  0  0  0  0  0  0
    1.9140   -0.7413   -1.2745 O   0  0  0  0  0  0  0  0  0  0  0  0
    1.1947    0.4090    0.6129 N   0  0  0  0  0  0  0  0  0  0  0  0
    0.1481   -0.5316    0.9438 C   0  0  0  0  0  0  0  0  0  0  0  0
   -0.8716   -0.6598   -0.1614 C   0  0  0  0  0  0  0  0  0  0  0  0
   -1.5484    0.6526   -0.4637 C   0  0  0  0  0  0  0  0  0  0  0  0
    1.3414    1.2421    1.2146 H   0  0  0  0  0  0  0  0  0  0  0  0
   -0.3376   -0.3066    1.9041 H   0  0  0  0  0  0  0  0  0  0  0  0
    0.6198   -1.5505    1.0433 H   0  0  0  0  0  0  0  0  0  0  0  0
   -1.6504   -1.3662    0.1572 H   0  0  0  0  0  0  0  0  0  0  0  0
   -0.3892   -1.0677   -1.0592 H   0  0  0  0  0  0  0  0  0  0  0  0
   -2.2578    0.9434    0.3278 H   0  0  0  0  0  0  0  0  0  0  0  0
   -0.7478    1.3980   -0.6390 H   0  0  0  0  0  0  0  0  0  0  0  0
   -2.1434    0.4907   -1.3995 H   0  0  0  0  0  0  0  0  0  0  0  0
  1  2  1  0
  2  3  2  0
  2  4  1  0
  4  5  1  0
  5  6  1  0
  6  7  1  0
  4  8  1  0
  5  9  1  0
  5 10  1  0
  6 11  1  0
  6 12  1  0
  7 13  1  0
  7 14  1  0
  7 15  1  0
M  END
