
     RDKit          3D

 13 13  0  0  0  0  0  0  0  0999 V2000
    2.5613    0.5962   -0.3135 R   0  0  0  0  0  1  0  0  0  0  0  0
    2.0711   -0.1994   -0.1717 C   0  0  0  0  0  0  0  0  0  0  0  0
    2.6497   -1.2845   -0.0961 O   0  0  0  0  0  0  0  0  0  0  0  0
    0.6498   -0.0376   -0.0569 C   0  0  0  0  0  0  0  0  0  0  0  0
   -0.1300   -1.1596    0.1515 C   0  0  0  0  0  0  0  0  0  0  0  0
   -1.4952   -1.0026    0.2616 C   0  0  0  0  0  0  0  0  0  0  0  0
   -2.0568    0.2066    0.1695 N   0  0  0  0  0  0  0  0  0  0  0  0
   -1.3383    1.3229   -0.0324 C   0  0  0  0  0  0  0  0  0  0  0  0
    0.0321    1.1953   -0.1465 C   0  0  0  0  0  0  0  0  0  0  0  0
    0.3019   -2.1462    0.2292 H   0  0  0  0  0  0  0  0  0  0  0  0
   -2.0786   -1.9021    0.4247 H   0  0  0  0  0  0  0  0  0  0  0  0
   -1.7921    2.3104   -0.1081 H   0  0  0  0  0  0  0  0  0  0  0  0
    0.6251    2.1006   -0.3112 H   0  0  0  0  0  0  0  0  0  0  0  0
  1  2  1  0
  2  3  2  0
  2  4  1  0
  4  5  2  0
  5  6  1  0
  6  7  2  0
  7  8  1  0
  8  9  2  0
  9  4  1  0
  5 10  1  0
  6 11  1  0
  8 12  1  0
  9 13  1  0
M  END
