
     RDKit          3D

 11 11  0  0  0  0  0  0  0  0999 V2000
    2.4699   -0.7013    0.1299 R   0  0  0  0  0  1  0  0  0  0  0  0
    2.0847    0.0240    0.0451 C   0  0  0  0  0  0  0  0  0  0  0  0
    2.7503    1.0872   -0.0511 O   0  0  0  0  0  0  0  0  0  0  0  0
    0.6195    0.1351   -0.0000 C   0  0  0  0  0  0  0  0  0  0  0  0
   -0.2325   -0.9457    0.0938 C   0  0  0  0  0  0  0  0  0  0  0  0
   -1.5121   -0.4356    0.0111 C   0  0  0  0  0  0  0  0  0  0  0  0
   -1.3861    0.9339   -0.1295 C   0  0  0  0  0  0  0  0  0  0  0  0
   -0.1049    1.2187   -0.1301 O   0  0  0  0  0  0  0  0  0  0  0  0
   -0.0155   -1.9891    0.2081 H   0  0  0  0  0  0  0  0  0  0  0  0
   -2.4597   -0.9784    0.0463 H   0  0  0  0  0  0  0  0  0  0  0  0
   -2.2137    1.6511   -0.2236 H   0  0  0  0  0  0  0  0  0  0  0  0
  1  2  1  0
  2  3  2  0
  2  4  1  0
  4  5  2  0
  5  6  1  0
  6  7  2  0
  7  8  1  0
  8  4  1  0
  5  9  1  0
  6 10  1  0
  7 11  1  0
M  END
