
     RDKit          3D

 12 11  0  0  0  0  0  0  0  0999 V2000
   -0.2970    0.4067   -1.2365 R   0  0  0  0  0  1  0  0  0  0  0  0
   -0.1270    0.3417   -0.3987 C   0  0  0  0  0  0  0  0  0  0  0  0
    1.3445    0.2168   -0.1136 C   0  0  0  0  0  0  0  0  0  0  0  0
   -0.8126   -0.8559    0.2214 C   0  0  0  0  0  0  0  0  0  0  0  0
   -0.6721    1.5143    0.1606 O   0  0  0  0  0  0  0  0  0  0  0  0
    1.6871    1.0676    0.4901 H   0  0  0  0  0  0  0  0  0  0  0  0
    1.8778    0.1090   -1.0825 H   0  0  0  0  0  0  0  0  0  0  0  0
    1.5934   -0.7067    0.4646 H   0  0  0  0  0  0  0  0  0  0  0  0
   -0.0838   -1.6943    0.3968 H   0  0  0  0  0  0  0  0  0  0  0  0
   -1.6404   -1.1517   -0.4405 H   0  0  0  0  0  0  0  0  0  0  0  0
   -1.2312   -0.5417    1.2095 H   0  0  0  0  0  0  0  0  0  0  0  0
   -1.6388    1.2943    0.3287 H   0  0  0  0  0  0  0  0  0  0  0  0
  1  2  1  0
  2  3  1  0
  2  4  1  0
  2  5  1  0
  3  6  1  0
  3  7  1  0
  3  8  1  0
  4  9  1  0
  4 10  1  0
  4 11  1  0
  5 12  1  0
M  END
