
     RDKit          3D

 18 18  0  0  0  0  0  0  0  0999 V2000
   -1.8075   -0.1700    1.2944 R   0  0  0  0  0  1  0  0  0  0  0  0
   -1.5685   -0.4892    0.5193 C   0  0  0  0  0  0  0  0  0  0  0  0
   -2.4608    0.1500   -0.5044 C   0  0  0  0  0  0  0  0  0  0  0  0
   -0.1331   -0.2430    0.2875 C   0  0  0  0  0  0  0  0  0  0  0  0
    0.7812   -1.2587    0.1195 C   0  0  0  0  0  0  0  0  0  0  0  0
    2.1297   -0.9523   -0.0969 C   0  0  0  0  0  0  0  0  0  0  0  0
    2.5764    0.3511   -0.1478 C   0  0  0  0  0  0  0  0  0  0  0  0
    1.6478    1.3563    0.0224 C   0  0  0  0  0  0  0  0  0  0  0  0
    0.3089    1.0525    0.2373 C   0  0  0  0  0  0  0  0  0  0  0  0
   -1.8058   -1.5787    0.5395 H   0  0  0  0  0  0  0  0  0  0  0  0
   -3.4792    0.2175   -0.0529 H   0  0  0  0  0  0  0  0  0  0  0  0
   -2.1639    1.1944   -0.7388 H   0  0  0  0  0  0  0  0  0  0  0  0
   -2.5392   -0.4208   -1.4419 H   0  0  0  0  0  0  0  0  0  0  0  0
    0.4295   -2.2743    0.1598 H   0  0  0  0  0  0  0  0  0  0  0  0
    2.8291   -1.7603   -0.2260 H   0  0  0  0  0  0  0  0  0  0  0  0
    3.6402    0.5828   -0.3187 H   0  0  0  0  0  0  0  0  0  0  0  0
    2.0008    2.3859   -0.0178 H   0  0  0  0  0  0  0  0  0  0  0  0
   -0.3856    1.8567    0.3655 H   0  0  0  0  0  0  0  0  0  0  0  0
  1  2  1  0
  2  3  1  0
  2  4  1  0
  4  5  2  0
  5  6  1  0
  6  7  2  0
  7  8  1  0
  8  9  2  0
  9  4  1  0
  2 10  1  0
  3 11  1  0
  3 12  1  0
  3 13  1  0
  5 14  1  0
  6 15  1  0
  7 16  1  0
  8 17  1  0
  9 18  1  0
M  END
