
     RDKit          3D

 10  9  0  0  0  0  0  0  0  0999 V2000
    0.5132   -0.8985   -0.4964 R   0  0  0  0  0  1  0  0  0  0  0  0
    0.2679   -0.2275    0.4225 C   0  0  0  0  0  0  0  0  0  0  0  0
   -1.1364   -0.0751   -0.0146 C   0  0  0  0  0  0  0  0  0  0  0  0
    1.1779    0.7790    0.1334 N   0  0  0  0  0  0  0  0  0  0  0  0
    0.5158   -1.0273    1.0825 H   0  0  0  0  0  0  0  0  0  0  0  0
   -1.6535   -1.0477    0.0696 H   0  0  0  0  0  0  0  0  0  0  0  0
   -1.2547    0.2271   -1.0945 H   0  0  0  0  0  0  0  0  0  0  0  0
   -1.6153    0.6975    0.5728 H   0  0  0  0  0  0  0  0  0  0  0  0
    1.0206    1.1890   -0.8288 H   0  0  0  0  0  0  0  0  0  0  0  0
    2.1645    0.3834    0.1535 H   0  0  0  0  0  0  0  0  0  0  0  0
  1  2  1  0
  2  3  1  0
  2  4  1  0
  2  5  1  0
  3  6  1  0
  3  7  1  0
  3  8  1  0
  4  9  1  0
  4 10  1  0
M  END
