
     RDKit          3D

 14 13  0  0  0  0  0  0  0  0999 V2000
    1.3992    0.6963    1.3630 R   0  0  0  0  0  1  0  0  0  0  0  0
    1.4939   -0.0229    0.6821 C   0  0  0  0  0  0  0  0  0  0  0  0
    2.7793   -0.6568    0.7632 C   0  0  0  0  0  0  0  0  0  0  0  0
    0.4897   -0.1575   -0.0245 N   0  0  0  0  0  0  0  0  0  0  0  0
   -0.6987    0.5342    0.0086 N   0  0  0  0  0  0  0  0  0  0  0  0
   -1.8694   -0.0858   -0.5170 C   0  0  0  0  0  0  0  0  0  0  0  0
   -3.1273    0.5772   -0.5118 N   0  0  0  0  0  0  0  0  0  0  0  0
   -1.8040   -1.6017   -1.1527 S   0  0  0  0  0  0  0  0  0  0  0  0
    3.5463    0.0141    0.2784 H   0  0  0  0  0  0  0  0  0  0  0  0
    2.7452   -1.6220    0.2353 H   0  0  0  0  0  0  0  0  0  0  0  0
    3.0574   -0.8222    1.8356 H   0  0  0  0  0  0  0  0  0  0  0  0
   -0.7944    1.5014    0.4021 H   0  0  0  0  0  0  0  0  0  0  0  0
   -3.6827    0.5861    0.3700 H   0  0  0  0  0  0  0  0  0  0  0  0
   -3.5346    1.0596   -1.3400 H   0  0  0  0  0  0  0  0  0  0  0  0
  1  2  1  0
  2  3  1  0
  2  4  2  3
  4  5  1  0
  5  6  1  0
  6  7  1  0
  6  8  2  0
  3  9  1  0
  3 10  1  0
  3 11  1  0
  5 12  1  0
  7 13  1  0
  7 14  1  0
M  END
