
     RDKit          3D

 14 13  0  0  0  0  0  0  0  0999 V2000
   -0.4622    1.1614    0.1272 R   0  0  0  0  0  1  0  0  0  0  0  0
   -0.5009    0.4203   -0.2410 C   0  0  0  0  0  0  0  0  0  0  0  0
   -1.9008   -0.0990   -0.1948 C   0  0  0  0  0  0  0  0  0  0  0  0
    0.5136   -0.4825    0.3806 C   0  0  0  0  0  0  0  0  0  0  0  0
    1.8819    0.1499    0.1722 C   0  0  0  0  0  0  0  0  0  0  0  0
   -0.2240    0.5368   -1.3201 H   0  0  0  0  0  0  0  0  0  0  0  0
   -2.1960   -0.5012    0.7986 H   0  0  0  0  0  0  0  0  0  0  0  0
   -2.1421   -0.8032   -1.0270 H   0  0  0  0  0  0  0  0  0  0  0  0
   -2.5836    0.7828   -0.3656 H   0  0  0  0  0  0  0  0  0  0  0  0
    0.5098   -1.5067   -0.0630 H   0  0  0  0  0  0  0  0  0  0  0  0
    0.3803   -0.6109    1.4688 H   0  0  0  0  0  0  0  0  0  0  0  0
    2.4172    0.3178    1.1121 H   0  0  0  0  0  0  0  0  0  0  0  0
    1.8125    1.1331   -0.3411 H   0  0  0  0  0  0  0  0  0  0  0  0
    2.4942   -0.4984   -0.5070 H   0  0  0  0  0  0  0  0  0  0  0  0
  1  2  1  0
  2  3  1  0
  2  4  1  0
  4  5  1  0
  2  6  1  0
  3  7  1  0
  3  8  1  0
  3  9  1  0
  4 10  1  0
  4 11  1  0
  5 12  1  0
  5 13  1  0
  5 14  1  0
M  END
