
     RDKit          3D

 11 10  0  0  0  0  0  0  0  0999 V2000
   -0.2789   -0.6383    1.0615 R   0  0  0  0  0  1  0  0  0  0  0  0
   -0.2893   -0.5928    0.1510 C   0  0  0  0  0  0  0  0  0  0  0  0
   -1.3283    0.4114   -0.2673 C   0  0  0  0  0  0  0  0  0  0  0  0
    1.0602   -0.2649   -0.3508 C   0  0  0  0  0  0  0  0  0  0  0  0
    1.6902   -1.0699   -1.1161 O   0  0  0  0  0  0  0  0  0  0  0  0
    1.7367    0.9062   -0.0445 O   0  0  0  0  0  0  0  0  0  0  0  0
   -0.5249   -1.6219   -0.1322 H   0  0  0  0  0  0  0  0  0  0  0  0
   -1.7740    0.9391    0.6192 H   0  0  0  0  0  0  0  0  0  0  0  0
   -2.1423   -0.1140   -0.7912 H   0  0  0  0  0  0  0  0  0  0  0  0
   -0.8668    1.1442   -0.9292 H   0  0  0  0  0  0  0  0  0  0  0  0
    2.7175    0.9009    0.2130 H   0  0  0  0  0  0  0  0  0  0  0  0
  1  2  1  0
  2  3  1  0
  2  4  1  0
  4  5  2  0
  4  6  1  0
  2  7  1  0
  3  8  1  0
  3  9  1  0
  3 10  1  0
  6 11  1  0
M  END
