
     RDKit          3D

 11 11  0  0  0  0  0  0  0  0999 V2000
   -0.0171    2.0219   -0.1104 R   0  0  0  0  0  1  0  0  0  0  0  0
   -0.0183    1.1736   -0.0643 C   0  0  0  0  0  0  0  0  0  0  0  0
    1.1750    0.4992   -0.0021 C   0  0  0  0  0  0  0  0  0  0  0  0
    1.1930   -0.8739    0.0730 C   0  0  0  0  0  0  0  0  0  0  0  0
    0.0239   -1.5212    0.0833 N   0  0  0  0  0  0  0  0  0  0  0  0
   -1.1766   -0.9288    0.0254 C   0  0  0  0  0  0  0  0  0  0  0  0
   -1.1924    0.4509   -0.0500 C   0  0  0  0  0  0  0  0  0  0  0  0
    2.1260    1.0482   -0.0117 H   0  0  0  0  0  0  0  0  0  0  0  0
    2.1558   -1.3865    0.1215 H   0  0  0  0  0  0  0  0  0  0  0  0
   -2.1134   -1.4595    0.0343 H   0  0  0  0  0  0  0  0  0  0  0  0
   -2.1559    0.9761   -0.0992 H   0  0  0  0  0  0  0  0  0  0  0  0
  1  2  1  0
  2  3  2  0
  3  4  1  0
  4  5  2  0
  5  6  1  0
  6  7  2  0
  7  2  1  0
  3  8  1  0
  4  9  1  0
  6 10  1  0
  7 11  1  0
M  END
