
     RDKit          3D

 16 16  0  0  0  0  0  0  0  0999 V2000
   -3.2415   -0.1180    0.0496 R   0  0  0  0  0  1  0  0  0  0  0  0
   -2.3009   -0.1286    0.0102 C   0  0  0  0  0  0  0  0  0  0  0  0
   -1.6144    0.9212    0.5700 C   0  0  0  0  0  0  0  0  0  0  0  0
   -0.2358    0.8599    0.4869 C   0  0  0  0  0  0  0  0  0  0  0  0
    0.4345   -0.1980   -0.1256 C   0  0  0  0  0  0  0  0  0  0  0  0
    1.8809   -0.2492   -0.2055 C   0  0  0  0  0  0  0  0  0  0  0  0
    2.6399    0.8064    0.3549 N   0  0  0  0  0  0  0  0  0  0  0  0
    2.4466   -1.2113   -0.7610 O   0  0  0  0  0  0  0  0  0  0  0  0
   -0.2961   -1.2313   -0.6746 C   0  0  0  0  0  0  0  0  0  0  0  0
   -1.6938   -1.1907   -0.6023 C   0  0  0  0  0  0  0  0  0  0  0  0
   -2.1501    1.7346    1.0416 H   0  0  0  0  0  0  0  0  0  0  0  0
    0.3409    1.6497    0.9058 H   0  0  0  0  0  0  0  0  0  0  0  0
    2.3003    1.7939    0.3564 H   0  0  0  0  0  0  0  0  0  0  0  0
    3.5817    0.6570    0.7981 H   0  0  0  0  0  0  0  0  0  0  0  0
    0.1504   -2.0847   -1.1653 H   0  0  0  0  0  0  0  0  0  0  0  0
   -2.2427   -2.0109   -1.0392 H   0  0  0  0  0  0  0  0  0  0  0  0
  1  2  1  0
  2  3  2  0
  3  4  1  0
  4  5  2  0
  5  6  1  0
  6  7  1  0
  6  8  2  0
  5  9  1  0
  9 10  2  0
 10  2  1  0
  3 11  1  0
  4 12  1  0
  7 13  1  0
  7 14  1  0
  9 15  1  0
 10 16  1  0
M  END
