
     RDKit          3D

 12 12  0  0  0  0  0  0  0  0999 V2000
   -1.5370   -1.1714    0.8713 R   0  0  0  0  0  1  0  0  0  0  0  0
   -1.1711   -0.4722    0.9172 C   0  0  0  0  0  0  0  0  0  0  0  0
   -1.3156    0.3731   -0.3591 C   0  0  0  0  0  0  0  0  0  0  0  0
   -0.0626    0.1397   -0.9551 O   0  0  0  0  0  0  0  0  0  0  0  0
    0.8865   -0.1054    0.0176 C   0  0  0  0  0  0  0  0  0  0  0  0
    2.3281    0.0075   -0.1287 N   0  0  0  0  0  0  0  0  0  0  0  0
    0.2635   -0.4543    1.0854 N   0  0  0  0  0  0  0  0  0  0  0  0
   -1.5878    0.1362    1.7701 H   0  0  0  0  0  0  0  0  0  0  0  0
   -1.3580    1.4342   -0.0718 H   0  0  0  0  0  0  0  0  0  0  0  0
   -2.1650    0.0311   -0.9697 H   0  0  0  0  0  0  0  0  0  0  0  0
    2.7809   -0.3337   -1.0032 H   0  0  0  0  0  0  0  0  0  0  0  0
    2.9380    0.4152    0.6014 H   0  0  0  0  0  0  0  0  0  0  0  0
  1  2  1  0
  2  3  1  0
  3  4  1  0
  4  5  1  0
  5  6  1  0
  5  7  2  0
  7  2  1  0
  2  8  1  0
  3  9  1  0
  3 10  1  0
  6 11  1  0
  6 12  1  0
M  END
