
     RDKit          3D

 15 16  0  0  0  0  0  0  0  0999 V2000
   -2.7391    1.2998    0.1227 R   0  0  0  0  0  1  0  0  0  0  0  0
   -1.9952    0.7824    0.0797 C   0  0  0  0  0  0  0  0  0  0  0  0
   -2.0606   -0.5790    0.1067 C   0  0  0  0  0  0  0  0  0  0  0  0
   -0.8691   -1.2987    0.0361 C   0  0  0  0  0  0  0  0  0  0  0  0
    0.3596   -0.7015   -0.0588 C   0  0  0  0  0  0  0  0  0  0  0  0
    0.4107    0.6713   -0.0851 C   0  0  0  0  0  0  0  0  0  0  0  0
   -0.7773    1.4090   -0.0150 C   0  0  0  0  0  0  0  0  0  0  0  0
    1.7448    1.0231   -0.1833 O   0  0  0  0  0  0  0  0  0  0  0  0
    2.5583   -0.1485   -0.0753 C   0  0  0  0  0  0  0  0  0  0  0  0
    1.6419   -1.2260   -0.1390 O   0  0  0  0  0  0  0  0  0  0  0  0
   -3.0196   -1.0469    0.1809 H   0  0  0  0  0  0  0  0  0  0  0  0
   -0.9167   -2.3625    0.0570 H   0  0  0  0  0  0  0  0  0  0  0  0
   -0.7191    2.4795   -0.0367 H   0  0  0  0  0  0  0  0  0  0  0  0
    3.0807   -0.0931    0.9072 H   0  0  0  0  0  0  0  0  0  0  0  0
    3.3009   -0.2088   -0.8972 H   0  0  0  0  0  0  0  0  0  0  0  0
  1  2  1  0
  2  3  2  0
  3  4  1  0
  4  5  2  0
  5  6  1  0
  6  7  2  0
  6  8  1  0
  8  9  1  0
  9 10  1  0
  7  2  1  0
 10  5  1  0
  3 11  1  0
  4 12  1  0
  7 13  1  0
  9 14  1  0
  9 15  1  0
M  END
