
     RDKit          3D

 17 17  0  0  0  0  0  0  0  0999 V2000
   -1.9880    2.1288   -0.5942 R   0  0  0  0  0  1  0  0  0  0  0  0
   -1.6514    1.3034   -0.4707 C   0  0  0  0  0  0  0  0  0  0  0  0
   -2.4956    0.2518   -0.1764 C   0  0  0  0  0  0  0  0  0  0  0  0
   -1.9119   -0.9898    0.0011 C   0  0  0  0  0  0  0  0  0  0  0  0
   -0.5500   -1.1556   -0.1133 C   0  0  0  0  0  0  0  0  0  0  0  0
    0.2904   -0.0958   -0.4088 C   0  0  0  0  0  0  0  0  0  0  0  0
    1.7549   -0.2512   -0.5362 C   0  0  0  0  0  0  0  0  0  0  0  0
    2.4511   -0.0613    0.7024 N   0  0  0  0  0  0  0  0  0  0  0  0
   -0.2894    1.1426   -0.5860 C   0  0  0  0  0  0  0  0  0  0  0  0
   -3.5743    0.3861   -0.0863 H   0  0  0  0  0  0  0  0  0  0  0  0
   -2.5556   -1.8413    0.2351 H   0  0  0  0  0  0  0  0  0  0  0  0
   -0.0881   -2.1344    0.0264 H   0  0  0  0  0  0  0  0  0  0  0  0
    2.2123    0.3853   -1.2953 H   0  0  0  0  0  0  0  0  0  0  0  0
    1.9436   -1.3153   -0.8557 H   0  0  0  0  0  0  0  0  0  0  0  0
    3.2923   -0.6769    0.7797 H   0  0  0  0  0  0  0  0  0  0  0  0
    2.7973    0.9340    0.8302 H   0  0  0  0  0  0  0  0  0  0  0  0
    0.3623    1.9895   -0.8201 H   0  0  0  0  0  0  0  0  0  0  0  0
  1  2  1  0
  2  3  2  0
  3  4  1  0
  4  5  2  0
  5  6  1  0
  6  7  1  0
  7  8  1  0
  6  9  2  0
  9  2  1  0
  3 10  1  0
  4 11  1  0
  5 12  1  0
  7 13  1  0
  7 14  1  0
  8 15  1  0
  8 16  1  0
  9 17  1  0
M  END
