
     RDKit          3D

 16 16  0  0  0  0  0  0  0  0999 V2000
   -1.2947    2.0457    1.0222 R   0  0  0  0  0  1  0  0  0  0  0  0
   -1.1870    1.2242    0.6004 C   0  0  0  0  0  0  0  0  0  0  0  0
   -2.2806    0.5200    0.2019 C   0  0  0  0  0  0  0  0  0  0  0  0
   -2.1087   -0.7137   -0.4313 C   0  0  0  0  0  0  0  0  0  0  0  0
   -0.8116   -1.1808   -0.6329 C   0  0  0  0  0  0  0  0  0  0  0  0
    0.2893   -0.4559   -0.2235 C   0  0  0  0  0  0  0  0  0  0  0  0
    1.5455   -0.9499   -0.4402 O   0  0  0  0  0  0  0  0  0  0  0  0
    2.6923   -0.2213   -0.0274 C   0  0  0  0  0  0  0  0  0  0  0  0
    0.1056    0.7807    0.4109 C   0  0  0  0  0  0  0  0  0  0  0  0
   -3.2602    0.9351    0.3863 H   0  0  0  0  0  0  0  0  0  0  0  0
   -2.9728   -1.2661   -0.7441 H   0  0  0  0  0  0  0  0  0  0  0  0
   -0.6419   -2.1244   -1.1160 H   0  0  0  0  0  0  0  0  0  0  0  0
    2.5633    0.1568    1.0208 H   0  0  0  0  0  0  0  0  0  0  0  0
    3.6140   -0.8032   -0.1074 H   0  0  0  0  0  0  0  0  0  0  0  0
    2.8129    0.6860   -0.6598 H   0  0  0  0  0  0  0  0  0  0  0  0
    0.9347    1.3668    0.7401 H   0  0  0  0  0  0  0  0  0  0  0  0
  1  2  1  0
  2  3  2  0
  3  4  1  0
  4  5  2  0
  5  6  1  0
  6  7  1  0
  7  8  1  0
  6  9  2  0
  9  2  1  0
  3 10  1  0
  4 11  1  0
  5 12  1  0
  8 13  1  0
  8 14  1  0
  8 15  1  0
  9 16  1  0
M  END
