
     RDKit          3D

 19 19  0  0  0  0  0  0  0  0999 V2000
   -3.8243   -0.0482    1.2028 R   0  0  0  0  0  1  0  0  0  0  0  0
   -3.0114   -0.0821    0.8720 C   0  0  0  0  0  0  0  0  0  0  0  0
   -2.7079   -0.7528   -0.2885 C   0  0  0  0  0  0  0  0  0  0  0  0
   -1.4270   -0.7839   -0.7745 C   0  0  0  0  0  0  0  0  0  0  0  0
   -0.3630   -0.1272   -0.1028 C   0  0  0  0  0  0  0  0  0  0  0  0
    0.9080   -0.2060   -0.6606 N   0  0  0  0  0  0  0  0  0  0  0  0
    2.0944    0.3505   -0.1885 C   0  0  0  0  0  0  0  0  0  0  0  0
    3.4079    0.1873   -0.8940 C   0  0  0  0  0  0  0  0  0  0  0  0
    2.1035    1.0153    0.8559 O   0  0  0  0  0  0  0  0  0  0  0  0
   -0.6578    0.5410    1.0506 C   0  0  0  0  0  0  0  0  0  0  0  0
   -1.9833    0.5474    1.5130 C   0  0  0  0  0  0  0  0  0  0  0  0
   -3.5167   -1.2485   -0.7936 H   0  0  0  0  0  0  0  0  0  0  0  0
   -1.2192   -1.3257   -1.6991 H   0  0  0  0  0  0  0  0  0  0  0  0
    1.0208   -0.7622   -1.5756 H   0  0  0  0  0  0  0  0  0  0  0  0
    4.0707   -0.5017   -0.3395 H   0  0  0  0  0  0  0  0  0  0  0  0
    3.2744   -0.1315   -1.9263 H   0  0  0  0  0  0  0  0  0  0  0  0
    3.8865    1.1882   -0.9000 H   0  0  0  0  0  0  0  0  0  0  0  0
    0.1030    1.0536    1.5988 H   0  0  0  0  0  0  0  0  0  0  0  0
   -2.1585    1.0866    2.4225 H   0  0  0  0  0  0  0  0  0  0  0  0
  1  2  1  0
  2  3  2  0
  3  4  1  0
  4  5  2  0
  5  6  1  0
  6  7  1  0
  7  8  1  0
  7  9  2  0
  5 10  1  0
 10 11  2  0
 11  2  1  0
  3 12  1  0
  4 13  1  0
  6 14  1  0
  8 15  1  0
  8 16  1  0
  8 17  1  0
 10 18  1  0
 11 19  1  0
M  END
