
     RDKit          3D

 16 16  0  0  0  0  0  0  0  0999 V2000
   -3.1290    0.4862   -0.2437 R   0  0  0  0  0  1  0  0  0  0  0  0
   -2.3058    0.3503   -0.0778 C   0  0  0  0  0  0  0  0  0  0  0  0
   -1.4723    1.4428   -0.1220 C   0  0  0  0  0  0  0  0  0  0  0  0
   -0.1410    1.2340    0.1443 C   0  0  0  0  0  0  0  0  0  0  0  0
    0.3447   -0.0127    0.4434 C   0  0  0  0  0  0  0  0  0  0  0  0
    1.7006   -0.1557    0.7026 O   0  0  0  0  0  0  0  0  0  0  0  0
    2.6216   -0.4358   -0.3469 C   0  0  0  0  0  0  0  0  0  0  0  0
    2.5992    0.5696   -1.3001 F   0  0  0  0  0  0  0  0  0  0  0  0
    3.8761   -0.4790    0.2562 F   0  0  0  0  0  0  0  0  0  0  0  0
    2.3575   -1.6721   -0.8785 F   0  0  0  0  0  0  0  0  0  0  0  0
   -0.5181   -1.0782    0.4779 C   0  0  0  0  0  0  0  0  0  0  0  0
   -1.8600   -0.9207    0.2185 C   0  0  0  0  0  0  0  0  0  0  0  0
   -1.8686    2.4427   -0.3631 H   0  0  0  0  0  0  0  0  0  0  0  0
    0.5177    2.0866    0.1112 H   0  0  0  0  0  0  0  0  0  0  0  0
   -0.1610   -2.0895    0.7141 H   0  0  0  0  0  0  0  0  0  0  0  0
   -2.5617   -1.7686    0.2434 H   0  0  0  0  0  0  0  0  0  0  0  0
  1  2  1  0
  2  3  2  0
  3  4  1  0
  4  5  2  0
  5  6  1  0
  6  7  1  0
  7  8  1  0
  7  9  1  0
  7 10  1  0
  5 11  1  0
 11 12  2  0
 12  2  1  0
  3 13  1  0
  4 14  1  0
 11 15  1  0
 12 16  1  0
M  END
