
     RDKit          3D

 14 14  0  0  0  0  0  0  0  0999 V2000
   -1.0890   -2.2584   -0.6200 R   0  0  0  0  0  1  0  0  0  0  0  0
   -0.8725   -1.4158   -0.3701 C   0  0  0  0  0  0  0  0  0  0  0  0
   -1.8556   -0.5315    0.0105 C   0  0  0  0  0  0  0  0  0  0  0  0
   -1.4616    0.7368    0.3799 C   0  0  0  0  0  0  0  0  0  0  0  0
   -0.1297    1.1083    0.3692 C   0  0  0  0  0  0  0  0  0  0  0  0
    0.8514    0.2163   -0.0137 C   0  0  0  0  0  0  0  0  0  0  0  0
    2.2341    0.5761   -0.0332 N   0  0  0  0  0  4  0  0  0  0  0  0
    3.0721   -0.2551   -0.3825 O   0  0  0  0  0  0  0  0  0  0  0  0
    2.5627    1.8649    0.3493 O   0  0  0  0  0  1  0  0  0  0  0  0
    0.4589   -1.0630   -0.3868 C   0  0  0  0  0  0  0  0  0  0  0  0
   -2.9177   -0.8122    0.0241 H   0  0  0  0  0  0  0  0  0  0  0  0
   -2.2313    1.4480    0.6840 H   0  0  0  0  0  0  0  0  0  0  0  0
    0.1472    2.1295    0.6706 H   0  0  0  0  0  0  0  0  0  0  0  0
    1.2309   -1.7437   -0.6813 H   0  0  0  0  0  0  0  0  0  0  0  0
  1  2  1  0
  2  3  2  0
  3  4  1  0
  4  5  2  0
  5  6  1  0
  6  7  1  0
  7  8  2  0
  7  9  1  0
  6 10  2  0
 10  2  1  0
  3 11  1  0
  4 12  1  0
  5 13  1  0
 10 14  1  0
M  CHG  2   7   1   9  -1
M  END
