
     RDKit          3D

 15 16  0  0  0  0  0  0  0  0999 V2000
    2.3895   -0.9692   -0.7034 R   0  0  0  0  0  1  0  0  0  0  0  0
    1.9279   -0.2755   -0.3310 C   0  0  0  0  0  0  0  0  0  0  0  0
    2.6574    0.7933    0.0918 C   0  0  0  0  0  0  0  0  0  0  0  0
    1.4571    1.8383    0.7058 S   0  0  0  0  0  0  0  0  0  0  0  0
    0.0738    0.8880    0.4071 C   0  0  0  0  0  0  0  0  0  0  0  0
   -1.3008    1.0536    0.6286 C   0  0  0  0  0  0  0  0  0  0  0  0
   -2.2108    0.0840    0.2712 C   0  0  0  0  0  0  0  0  0  0  0  0
   -1.6573   -1.0469   -0.3151 C   0  0  0  0  0  0  0  0  0  0  0  0
   -0.3370   -1.2304   -0.5394 C   0  0  0  0  0  0  0  0  0  0  0  0
    0.5870   -0.2331   -0.1705 C   0  0  0  0  0  0  0  0  0  0  0  0
    3.7579    0.9275    0.0390 H   0  0  0  0  0  0  0  0  0  0  0  0
   -1.6491    1.9546    1.0861 H   0  0  0  0  0  0  0  0  0  0  0  0
   -3.2728    0.1856    0.4301 H   0  0  0  0  0  0  0  0  0  0  0  0
   -2.3865   -1.8162   -0.5980 H   0  0  0  0  0  0  0  0  0  0  0  0
   -0.0364   -2.1537   -1.0022 H   0  0  0  0  0  0  0  0  0  0  0  0
  1  2  1  0
  2  3  2  0
  3  4  1  0
  4  5  1  0
  5  6  2  0
  6  7  1  0
  7  8  2  0
  8  9  1  0
  9 10  2  0
 10  2  1  0
 10  5  1  0
  3 11  1  0
  6 12  1  0
  7 13  1  0
  8 14  1  0
  9 15  1  0
M  END
