
     RDKit          3D

 14 14  0  0  0  0  0  0  0  0999 V2000
   -0.0311   -1.4306    0.1700 R   0  0  0  0  0  1  0  0  0  0  0  0
   -0.0128   -0.4530    0.0467 C   0  0  0  0  0  0  0  0  0  0  0  0
   -1.0774    0.3449   -0.0479 C   0  0  0  0  0  0  0  0  0  0  0  0
   -2.5129   -0.0092    0.0045 C   0  0  0  0  0  0  0  0  0  0  0  0
   -0.5862    1.6129   -0.2103 N   0  0  0  0  0  0  0  0  0  0  0  0
    0.7319    1.5382   -0.2081 O   0  0  0  0  0  0  0  0  0  0  0  0
    1.1103    0.2774   -0.0514 C   0  0  0  0  0  0  0  0  0  0  0  0
    2.5027   -0.2504    0.0075 C   0  0  0  0  0  0  0  0  0  0  0  0
   -3.1052    0.7004    0.6315 H   0  0  0  0  0  0  0  0  0  0  0  0
   -2.5975   -1.0167    0.4888 H   0  0  0  0  0  0  0  0  0  0  0  0
   -2.9690   -0.1211   -1.0056 H   0  0  0  0  0  0  0  0  0  0  0  0
    3.2515    0.4791   -0.3439 H   0  0  0  0  0  0  0  0  0  0  0  0
    2.7285   -0.4795    1.0852 H   0  0  0  0  0  0  0  0  0  0  0  0
    2.5674   -1.1923   -0.5669 H   0  0  0  0  0  0  0  0  0  0  0  0
  1  2  1  0
  2  3  1  0
  3  4  1  0
  3  5  2  0
  5  6  1  0
  6  7  1  0
  7  8  1  0
  7  2  2  0
  4  9  1  0
  4 10  1  0
  4 11  1  0
  8 12  1  0
  8 13  1  0
  8 14  1  0
M  END
