
     RDKit          3D

  9  9  0  0  0  0  0  0  0  0999 V2000
    1.0975   -1.4915   -0.0639 R   0  0  0  0  0  1  0  0  0  0  0  0
    0.6394   -0.6683   -0.0367 C   0  0  0  0  0  0  0  0  0  0  0  0
   -0.7087   -0.5924    0.0371 C   0  0  0  0  0  0  0  0  0  0  0  0
   -1.2573    0.6586    0.0704 C   0  0  0  0  0  0  0  0  0  0  0  0
    0.1041    1.6737   -0.0012 S   0  0  0  0  0  0  0  0  0  0  0  0
    1.3365    0.5062   -0.0716 C   0  0  0  0  0  0  0  0  0  0  0  0
   -1.2994   -1.5506    0.0668 H   0  0  0  0  0  0  0  0  0  0  0  0
   -2.3248    0.8735    0.1292 H   0  0  0  0  0  0  0  0  0  0  0  0
    2.4127    0.5908   -0.1301 H   0  0  0  0  0  0  0  0  0  0  0  0
  1  2  1  0
  2  3  1  0
  3  4  2  0
  4  5  1  0
  5  6  1  0
  6  2  2  0
  3  7  1  0
  4  8  1  0
  6  9  1  0
M  END
