
     RDKit          3D

 18 19  0  0  0  0  0  0  0  0999 V2000
   -3.2674   -0.9078    0.8685 R   0  0  0  0  0  1  0  0  0  0  0  0
   -2.4840   -0.5406    0.4850 C   0  0  0  0  0  0  0  0  0  0  0  0
   -2.5580    0.4309   -0.4434 C   0  0  0  0  0  0  0  0  0  0  0  0
   -1.3577    0.9286   -0.9687 C   0  0  0  0  0  0  0  0  0  0  0  0
   -0.1522    0.4251   -0.5344 C   0  0  0  0  0  0  0  0  0  0  0  0
   -0.0877   -0.5698    0.4168 C   0  0  0  0  0  0  0  0  0  0  0  0
   -1.3007   -1.0420    0.9182 C   0  0  0  0  0  0  0  0  0  0  0  0
    1.1350   -1.0783    0.8552 O   0  0  0  0  0  0  0  0  0  0  0  0
    2.2417   -0.1692    0.7549 C   0  0  0  0  0  0  0  0  0  0  0  0
    2.2645    0.2975   -0.6942 C   0  0  0  0  0  0  0  0  0  0  0  0
    1.0442    0.9191   -1.0561 O   0  0  0  0  0  0  0  0  0  0  0  0
   -3.5192    0.8072   -0.7655 H   0  0  0  0  0  0  0  0  0  0  0  0
   -1.4579    1.7045   -1.7086 H   0  0  0  0  0  0  0  0  0  0  0  0
   -1.2501   -1.8200    1.6620 H   0  0  0  0  0  0  0  0  0  0  0  0
    3.1946   -0.6400    0.9851 H   0  0  0  0  0  0  0  0  0  0  0  0
    2.0326    0.7514    1.3635 H   0  0  0  0  0  0  0  0  0  0  0  0
    2.4628   -0.5841   -1.3196 H   0  0  0  0  0  0  0  0  0  0  0  0
    3.0595    1.0877   -0.8187 H   0  0  0  0  0  0  0  0  0  0  0  0
  1  2  1  0
  2  3  2  0
  3  4  1  0
  4  5  2  0
  5  6  1  0
  6  7  2  0
  6  8  1  0
  8  9  1  0
  9 10  1  0
 10 11  1  0
  7  2  1  0
 11  5  1  0
  3 12  1  0
  4 13  1  0
  7 14  1  0
  9 15  1  0
  9 16  1  0
 10 17  1  0
 10 18  1  0
M  END
