
     RDKit          3D

 11 11  0  0  0  0  0  0  0  0999 V2000
   -1.5532   -1.7959    0.2025 R   0  0  0  0  0  1  0  0  0  0  0  0
   -0.9192   -1.2157    0.1313 C   0  0  0  0  0  0  0  0  0  0  0  0
   -1.2771    0.1166    0.0467 C   0  0  0  0  0  0  0  0  0  0  0  0
   -0.3130    1.1000   -0.0691 C   0  0  0  0  0  0  0  0  0  0  0  0
    1.0192    0.7229   -0.0986 C   0  0  0  0  0  0  0  0  0  0  0  0
    1.3608   -0.6089   -0.0133 C   0  0  0  0  0  0  0  0  0  0  0  0
    0.3758   -1.5091    0.0972 N   0  0  0  0  0  0  0  0  0  0  0  0
   -2.3384    0.4125    0.0706 H   0  0  0  0  0  0  0  0  0  0  0  0
   -0.5658    2.1428   -0.1366 H   0  0  0  0  0  0  0  0  0  0  0  0
    1.8024    1.4883   -0.1902 H   0  0  0  0  0  0  0  0  0  0  0  0
    2.4086   -0.8535   -0.0404 H   0  0  0  0  0  0  0  0  0  0  0  0
  1  2  1  0
  2  3  2  0
  3  4  1  0
  4  5  2  0
  5  6  1  0
  6  7  2  0
  7  2  1  0
  3  8  1  0
  4  9  1  0
  5 10  1  0
  6 11  1  0
M  END
