
     RDKit          3D

 12 12  0  0  0  0  0  0  0  0999 V2000
   -0.0749    1.6008    0.6211 R   0  0  0  0  0  1  0  0  0  0  0  0
   -0.3530    0.8527    0.3358 C   0  0  0  0  0  0  0  0  0  0  0  0
   -1.6805    0.4825    0.2331 C   0  0  0  0  0  0  0  0  0  0  0  0
   -1.6499   -0.8052   -0.2743 C   0  0  0  0  0  0  0  0  0  0  0  0
   -0.3598   -1.1287   -0.4432 N   0  0  0  0  0  0  0  0  0  0  0  0
    0.4412   -0.1533   -0.0855 N   0  0  0  0  0  0  0  0  0  0  0  0
    1.9092   -0.1411   -0.1282 C   0  0  0  0  0  0  0  0  0  0  0  0
   -2.5554    1.0661    0.4909 H   0  0  0  0  0  0  0  0  0  0  0  0
   -2.5472   -1.3744   -0.4691 H   0  0  0  0  0  0  0  0  0  0  0  0
    2.2973   -0.3119   -1.1375 H   0  0  0  0  0  0  0  0  0  0  0  0
    2.2582    0.8331    0.2802 H   0  0  0  0  0  0  0  0  0  0  0  0
    2.3148   -0.9208    0.5766 H   0  0  0  0  0  0  0  0  0  0  0  0
  1  2  1  0
  2  3  2  0
  3  4  1  0
  4  5  2  0
  5  6  1  0
  6  7  1  0
  6  2  1  0
  3  8  1  0
  4  9  1  0
  7 10  1  0
  7 11  1  0
  7 12  1  0
M  END
