c1cccccc1
  PyMOL2.3          3D                             0

 12 12  0  0  0  0  0  0  0  0999 V2000
   -2.5900    0.0000    0.0000 H   0  0  0  0  0  0  0  0  0  0  0  0
    1.2950   -2.2430    0.0000 H   0  0  0  0  0  0  0  0  0  0  0  0
    1.2950    2.2430    0.0000 H   0  0  0  0  0  0  0  0  0  0  0  0
   -1.2950    2.2430    0.0000 H   0  0  0  0  0  0  0  0  0  0  0  0
   -1.2950   -2.2430    0.0000 H   0  0  0  0  0  0  0  0  0  0  0  0
    3.0000    0.0000    0.0000 R   0  0  0  0  0  0  0  0  0  0  0  0
    1.5000    0.0000    0.0000 C   0  0  0  0  0  0  0  0  0  0  0  0
    0.7500   -1.2990    0.0000 C   0  0  0  0  0  0  0  0  0  0  0  0
   -0.7500   -1.2990    0.0000 C   0  0  0  0  0  0  0  0  0  0  0  0
   -1.5000    0.0000    0.0000 C   0  0  0  0  0  0  0  0  0  0  0  0
   -0.7500    1.2990    0.0000 C   0  0  0  0  0  0  0  0  0  0  0  0
    0.7500    1.2990    0.0000 C   0  0  0  0  0  0  0  0  0  0  0  0
  6  7  1  0  0  0  0
  7  8  2  0  0  0  0
  2  8  1  0  0  0  0
  8  9  1  0  0  0  0
  5  9  1  0  0  0  0
  9 10  2  0  0  0  0
  1 10  1  0  0  0  0
 10 11  1  0  0  0  0
  4 11  1  0  0  0  0
 11 12  2  0  0  0  0
  3 12  1  0  0  0  0
  7 12  1  0  0  0  0
M  END
