
     RDKit          3D

 13 13  0  0  0  0  0  0  0  0999 V2000
   -1.7597    0.2540   -2.0281 R   0  0  0  0  0  1  0  0  0  0  0  0
   -1.0839    0.1647   -1.2671 C   0  0  0  0  0  0  0  0  0  0  0  0
   -1.4641   -0.5362   -0.1890 C   0  0  0  0  0  0  0  0  0  0  0  0
   -0.5588   -0.6833    0.8855 C   0  0  0  0  0  0  0  0  0  0  0  0
    0.6818   -0.1015    0.7873 C   0  0  0  0  0  0  0  0  0  0  0  0
    1.6210   -0.2459    1.8859 C   0  0  0  0  0  0  0  0  0  0  0  0
    2.3662   -0.3406    2.7610 N   0  0  0  0  0  0  0  0  0  0  0  0
    1.0148    0.6055   -0.3435 C   0  0  0  0  0  0  0  0  0  0  0  0
    0.1076    0.7508   -1.4162 C   0  0  0  0  0  0  0  0  0  0  0  0
   -2.4370   -0.9845   -0.1282 H   0  0  0  0  0  0  0  0  0  0  0  0
   -0.8306   -1.2334    1.7543 H   0  0  0  0  0  0  0  0  0  0  0  0
    1.9822    1.0549   -0.4116 H   0  0  0  0  0  0  0  0  0  0  0  0
    0.3605    1.2954   -2.2905 H   0  0  0  0  0  0  0  0  0  0  0  0
  1  2  1  0
  2  3  2  0
  3  4  1  0
  4  5  2  0
  5  6  1  0
  6  7  3  0
  5  8  1  0
  8  9  2  0
  9  2  1  0
  3 10  1  0
  4 11  1  0
  8 12  1  0
  9 13  1  0
M  END
