
     RDKit          3D

  8  8  0  0  0  0  0  0  0  0999 V2000
   -1.3828    1.3794   -0.0569 R   0  0  0  0  0  1  0  0  0  0  0  0
   -0.6446    0.7198   -0.0300 C   0  0  0  0  0  0  0  0  0  0  0  0
   -0.8387   -0.6188    0.0308 C   0  0  0  0  0  0  0  0  0  0  0  0
    0.4136   -1.1379    0.0496 N   0  0  0  0  0  0  0  0  0  0  0  0
    1.2779   -0.1106    0.0004 C   0  0  0  0  0  0  0  0  0  0  0  0
    0.5944    1.0393   -0.0488 O   0  0  0  0  0  0  0  0  0  0  0  0
   -1.7851   -1.1391    0.0576 H   0  0  0  0  0  0  0  0  0  0  0  0
    2.3652   -0.1320   -0.0026 H   0  0  0  0  0  0  0  0  0  0  0  0
  1  2  1  0
  2  3  2  0
  3  4  1  0
  4  5  2  0
  5  6  1  0
  6  2  1  0
  3  7  1  0
  5  8  1  0
M  END
