
     RDKit          3D

 15 15  0  0  0  0  0  0  0  0999 V2000
    1.3229    2.3082   -0.0042 R   0  0  0  0  0  1  0  0  0  0  0  0
    1.1729    1.4236    0.0115 C   0  0  0  0  0  0  0  0  0  0  0  0
    2.2183    0.5612    0.0878 C   0  0  0  0  0  0  0  0  0  0  0  0
    1.9966   -0.8060    0.1125 C   0  0  0  0  0  0  0  0  0  0  0  0
    0.6996   -1.2883    0.0589 C   0  0  0  0  0  0  0  0  0  0  0  0
   -0.3312   -0.3721   -0.0180 C   0  0  0  0  0  0  0  0  0  0  0  0
   -1.6602   -0.8416   -0.0736 O   0  0  0  0  0  0  0  0  0  0  0  0
   -2.7344    0.0771   -0.1529 C   0  0  0  0  0  0  0  0  0  0  0  0
   -0.0854    0.9514   -0.0404 N   0  0  0  0  0  0  0  0  0  0  0  0
    3.2322    0.9746    0.1287 H   0  0  0  0  0  0  0  0  0  0  0  0
    2.8282   -1.5055    0.1736 H   0  0  0  0  0  0  0  0  0  0  0  0
    0.4709   -2.3494    0.0753 H   0  0  0  0  0  0  0  0  0  0  0  0
   -2.5435    0.8439   -0.9269 H   0  0  0  0  0  0  0  0  0  0  0  0
   -2.9424    0.5330    0.8524 H   0  0  0  0  0  0  0  0  0  0  0  0
   -3.6445   -0.5100   -0.4465 H   0  0  0  0  0  0  0  0  0  0  0  0
  1  2  1  0
  2  3  2  0
  3  4  1  0
  4  5  2  0
  5  6  1  0
  6  7  1  0
  7  8  1  0
  6  9  2  0
  9  2  1  0
  3 10  1  0
  4 11  1  0
  5 12  1  0
  8 13  1  0
  8 14  1  0
  8 15  1  0
M  END
