
     RDKit          3D

 12 12  0  0  0  0  0  0  0  0999 V2000
   -1.8896    1.3681    0.1253 R   0  0  0  0  0  1  0  0  0  0  0  0
   -1.1667    0.8232    0.0767 C   0  0  0  0  0  0  0  0  0  0  0  0
   -1.3282   -0.5369    0.0417 C   0  0  0  0  0  0  0  0  0  0  0  0
   -0.1695   -1.3122   -0.0332 C   0  0  0  0  0  0  0  0  0  0  0  0
    1.0824   -0.7467   -0.0706 C   0  0  0  0  0  0  0  0  0  0  0  0
    2.4913   -1.8049   -0.1652 Cl  0  0  0  0  0  0  0  0  0  0  0  0
    1.1832    0.6125   -0.0330 C   0  0  0  0  0  0  0  0  0  0  0  0
    0.0643    1.4289    0.0414 C   0  0  0  0  0  0  0  0  0  0  0  0
   -2.3046   -0.9825    0.0707 H   0  0  0  0  0  0  0  0  0  0  0  0
   -0.3225   -2.3872   -0.0597 H   0  0  0  0  0  0  0  0  0  0  0  0
    2.1670    1.0471   -0.0627 H   0  0  0  0  0  0  0  0  0  0  0  0
    0.1931    2.4907    0.0686 H   0  0  0  0  0  0  0  0  0  0  0  0
  1  2  1  0
  2  3  2  0
  3  4  1  0
  4  5  2  0
  5  6  1  0
  5  7  1  0
  7  8  2  0
  8  2  1  0
  3  9  1  0
  4 10  1  0
  7 11  1  0
  8 12  1  0
M  END
