
     RDKit          3D

 16 16  0  0  0  0  0  0  0  0999 V2000
    0.1837    1.8895    0.4400 R   0  0  0  0  0  1  0  0  0  0  0  0
   -0.2099    1.1353    0.5815 C   0  0  0  0  0  0  0  0  0  0  0  0
   -1.1825    0.9748    1.5021 C   0  0  0  0  0  0  0  0  0  0  0  0
   -1.7967   -0.2401    1.7121 C   0  0  0  0  0  0  0  0  0  0  0  0
   -1.3686   -1.2900    0.9320 C   0  0  0  0  0  0  0  0  0  0  0  0
   -0.4012   -1.1480    0.0105 C   0  0  0  0  0  0  0  0  0  0  0  0
    0.2829    0.0930   -0.2588 C   0  0  0  0  0  0  0  0  0  0  0  0
    1.1399    0.1704   -1.0839 O   0  0  0  0  0  0  0  0  0  0  0  0
    2.1331    0.2593   -2.0405 C   0  0  0  0  0  0  0  0  0  0  0  0
   -1.5454    1.7967    2.1396 H   0  0  0  0  0  0  0  0  0  0  0  0
   -2.5732   -0.3585    2.4518 H   0  0  0  0  0  0  0  0  0  0  0  0
   -1.8787   -2.2419    1.1281 H   0  0  0  0  0  0  0  0  0  0  0  0
   -0.0895   -1.9990   -0.5921 H   0  0  0  0  0  0  0  0  0  0  0  0
    2.0398    1.2588   -2.5541 H   0  0  0  0  0  0  0  0  0  0  0  0
    2.1334   -0.5549   -2.8022 H   0  0  0  0  0  0  0  0  0  0  0  0
    3.1327    0.2546   -1.5661 H   0  0  0  0  0  0  0  0  0  0  0  0
  1  2  1  0
  2  3  2  0
  3  4  1  0
  4  5  2  0
  5  6  1  0
  6  7  2  0
  7  8  1  0
  8  9  1  0
  7  2  1  0
  3 10  1  0
  4 11  1  0
  5 12  1  0
  6 13  1  0
  9 14  1  0
  9 15  1  0
  9 16  1  0
M  END
