
     RDKit          3D

 15 15  0  0  0  0  0  0  0  0999 V2000
   -2.8103    1.1831   -0.4192 R   0  0  0  0  0  1  0  0  0  0  0  0
   -2.1317    0.6866   -0.3074 C   0  0  0  0  0  0  0  0  0  0  0  0
   -2.3480   -0.6780   -0.2300 C   0  0  0  0  0  0  0  0  0  0  0  0
   -1.2662   -1.4561   -0.0528 N   0  0  0  0  0  0  0  0  0  0  0  0
   -0.0124   -0.9825    0.0506 C   0  0  0  0  0  0  0  0  0  0  0  0
    0.2065    0.3784   -0.0261 C   0  0  0  0  0  0  0  0  0  0  0  0
    1.4917    0.8760    0.0790 O   0  0  0  0  0  0  0  0  0  0  0  0
    2.5493   -0.0385    0.2637 C   0  0  0  0  0  0  0  0  0  0  0  0
   -0.8682    1.2191   -0.2072 C   0  0  0  0  0  0  0  0  0  0  0  0
   -3.3462   -1.0500   -0.3127 H   0  0  0  0  0  0  0  0  0  0  0  0
    0.8160   -1.6671    0.1930 H   0  0  0  0  0  0  0  0  0  0  0  0
    2.5539   -0.8476   -0.4927 H   0  0  0  0  0  0  0  0  0  0  0  0
    2.4262   -0.4787    1.2756 H   0  0  0  0  0  0  0  0  0  0  0  0
    3.4983    0.5693    0.1931 H   0  0  0  0  0  0  0  0  0  0  0  0
   -0.7588    2.2860   -0.2743 H   0  0  0  0  0  0  0  0  0  0  0  0
  1  2  1  0
  2  3  2  0
  3  4  1  0
  4  5  2  0
  5  6  1  0
  6  7  1  0
  7  8  1  0
  6  9  2  0
  9  2  1  0
  3 10  1  0
  5 11  1  0
  8 12  1  0
  8 13  1  0
  8 14  1  0
  9 15  1  0
M  END
