
     RDKit          3D

  8  8  0  0  0  0  0  0  0  0999 V2000
   -1.9067    1.0267   -0.1917 R   0  0  0  0  0  1  0  0  0  0  0  0
   -1.0131    0.6424   -0.0890 C   0  0  0  0  0  0  0  0  0  0  0  0
   -0.6549   -0.6220   -0.3290 C   0  0  0  0  0  0  0  0  0  0  0  0
    0.6007   -0.9270   -0.1252 N   0  0  0  0  0  0  0  0  0  0  0  0
    1.4393   -0.0055    0.2959 C   0  0  0  0  0  0  0  0  0  0  0  0
    0.4137    1.3859    0.4186 S   0  0  0  0  0  0  0  0  0  0  0  0
   -1.3787   -1.3771   -0.6822 H   0  0  0  0  0  0  0  0  0  0  0  0
    2.4997   -0.1234    0.5034 H   0  0  0  0  0  0  0  0  0  0  0  0
  1  2  1  0
  2  3  2  0
  3  4  1  0
  4  5  2  0
  5  6  1  0
  6  2  1  0
  3  7  1  0
  5  8  1  0
M  END
