
     RDKit          3D

 12 12  0  0  0  0  0  0  0  0999 V2000
    0.3560   -2.2664   -0.0539 R   0  0  0  0  0  1  0  0  0  0  0  0
    0.2023   -1.3376   -0.0320 C   0  0  0  0  0  0  0  0  0  0  0  0
   -1.0696   -0.8653   -0.0561 C   0  0  0  0  0  0  0  0  0  0  0  0
   -2.1201   -1.7324   -0.1118 F   0  0  0  0  0  0  0  0  0  0  0  0
   -1.2709    0.5071   -0.0231 C   0  0  0  0  0  0  0  0  0  0  0  0
   -0.2221    1.3974    0.0332 C   0  0  0  0  0  0  0  0  0  0  0  0
    1.0543    0.8852    0.0563 C   0  0  0  0  0  0  0  0  0  0  0  0
    1.2723   -0.4940    0.0235 C   0  0  0  0  0  0  0  0  0  0  0  0
    2.5382   -0.9855    0.0469 F   0  0  0  0  0  0  0  0  0  0  0  0
   -2.2680    0.8766   -0.0420 H   0  0  0  0  0  0  0  0  0  0  0  0
   -0.3595    2.4688    0.0595 H   0  0  0  0  0  0  0  0  0  0  0  0
    1.8872    1.5461    0.0996 H   0  0  0  0  0  0  0  0  0  0  0  0
  1  2  1  0
  2  3  2  0
  3  4  1  0
  3  5  1  0
  5  6  2  0
  6  7  1  0
  7  8  2  0
  8  9  1  0
  8  2  1  0
  5 10  1  0
  6 11  1  0
  7 12  1  0
M  END
