
     RDKit          3D

 14 14  0  0  0  0  0  0  0  0999 V2000
   -1.5954    2.1814    0.2643 R   0  0  0  0  0  1  0  0  0  0  0  0
   -1.2388    1.3923    0.1758 C   0  0  0  0  0  0  0  0  0  0  0  0
   -2.0591    0.2856    0.1146 C   0  0  0  0  0  0  0  0  0  0  0  0
   -1.4469   -0.9442   -0.0261 C   0  0  0  0  0  0  0  0  0  0  0  0
   -0.0671   -0.9999   -0.0970 C   0  0  0  0  0  0  0  0  0  0  0  0
    0.7311    0.1091   -0.0346 C   0  0  0  0  0  0  0  0  0  0  0  0
    2.2214    0.0193   -0.1139 C   0  0  0  0  0  0  0  0  0  0  0  0
    2.7394    1.3012    0.0210 F   0  0  0  0  0  0  0  0  0  0  0  0
    2.6587   -0.5470   -1.2692 F   0  0  0  0  0  0  0  0  0  0  0  0
    2.7273   -0.7015    0.9703 F   0  0  0  0  0  0  0  0  0  0  0  0
    0.1151    1.3008    0.1028 N   0  0  0  0  0  0  0  0  0  0  0  0
   -3.1392    0.3998    0.1765 H   0  0  0  0  0  0  0  0  0  0  0  0
   -2.0736   -1.8252   -0.0760 H   0  0  0  0  0  0  0  0  0  0  0  0
    0.4270   -1.9716   -0.2086 H   0  0  0  0  0  0  0  0  0  0  0  0
  1  2  1  0
  2  3  2  0
  3  4  1  0
  4  5  2  0
  5  6  1  0
  6  7  1  0
  7  8  1  0
  7  9  1  0
  7 10  1  0
  6 11  2  0
 11  2  1  0
  3 12  1  0
  4 13  1  0
  5 14  1  0
M  END
