
     RDKit          3D

 19 20  0  0  0  0  0  0  0  0999 V2000
   -1.4110   -1.8763   -0.1537 R   0  0  0  0  0  1  0  0  0  0  0  0
   -1.9765   -1.3082    0.0725 C   0  0  0  0  0  0  0  0  0  0  0  0
   -2.3165   -0.1869   -0.8379 C   0  0  0  0  0  0  0  0  0  0  0  0
   -1.5079    0.1382    0.3413 C   0  0  0  0  0  0  0  0  0  0  0  0
   -0.0341    0.2883    0.2719 C   0  0  0  0  0  0  0  0  0  0  0  0
    0.7065    1.0251    1.1589 C   0  0  0  0  0  0  0  0  0  0  0  0
    2.0795    1.1076    1.0142 C   0  0  0  0  0  0  0  0  0  0  0  0
    2.7002    0.4564   -0.0110 C   0  0  0  0  0  0  0  0  0  0  0  0
    1.9767   -0.2934   -0.9194 C   0  0  0  0  0  0  0  0  0  0  0  0
    0.6245   -0.3580   -0.7537 C   0  0  0  0  0  0  0  0  0  0  0  0
   -2.7544   -1.7030    0.7503 H   0  0  0  0  0  0  0  0  0  0  0  0
   -1.8640   -0.0978   -1.8509 H   0  0  0  0  0  0  0  0  0  0  0  0
   -3.3711    0.1950   -0.8290 H   0  0  0  0  0  0  0  0  0  0  0  0
   -1.9948    0.6769    1.1847 H   0  0  0  0  0  0  0  0  0  0  0  0
    0.1782    1.5227    1.9526 H   0  0  0  0  0  0  0  0  0  0  0  0
    2.6814    1.6838    1.7039 H   0  0  0  0  0  0  0  0  0  0  0  0
    3.7883    0.5135   -0.1373 H   0  0  0  0  0  0  0  0  0  0  0  0
    2.4386   -0.8263   -1.7497 H   0  0  0  0  0  0  0  0  0  0  0  0
    0.0564   -0.9576   -1.4822 H   0  0  0  0  0  0  0  0  0  0  0  0
  1  2  1  0
  2  3  1  0
  3  4  1  0
  4  5  1  0
  5  6  2  0
  6  7  1  0
  7  8  2  0
  8  9  1  0
  9 10  2  0
  4  2  1  0
 10  5  1  0
  2 11  1  0
  3 12  1  0
  3 13  1  0
  4 14  1  0
  6 15  1  0
  7 16  1  0
  8 17  1  0
  9 18  1  0
 10 19  1  0
M  END
