
     RDKit          3D

 21 21  0  0  0  0  0  0  0  0999 V2000
    4.2629   -0.1715    0.1070 R   0  0  0  0  0  1  0  0  0  0  0  0
    3.3102   -0.2942    0.0600 C   0  0  0  0  0  0  0  0  0  0  0  0
    2.8050   -1.5574    0.0550 C   0  0  0  0  0  0  0  0  0  0  0  0
    1.4105   -1.6893   -0.0147 C   0  0  0  0  0  0  0  0  0  0  0  0
    0.6125   -0.5571   -0.0747 C   0  0  0  0  0  0  0  0  0  0  0  0
   -0.7827   -0.6836   -0.1445 O   0  0  0  0  0  0  0  0  0  0  0  0
   -1.5471    0.4957   -0.2037 C   0  0  0  0  0  0  0  0  0  0  0  0
   -2.4186    0.5936    1.0366 C   0  0  0  0  0  0  0  0  0  0  0  0
   -2.3724    0.5802   -1.4671 C   0  0  0  0  0  0  0  0  0  0  0  0
    1.2095    0.6480   -0.0641 N   0  0  0  0  0  0  0  0  0  0  0  0
    2.5490    0.8234    0.0020 C   0  0  0  0  0  0  0  0  0  0  0  0
    3.4211   -2.4306    0.1014 H   0  0  0  0  0  0  0  0  0  0  0  0
    0.9716   -2.6759   -0.0208 H   0  0  0  0  0  0  0  0  0  0  0  0
   -0.8683    1.3676   -0.1833 H   0  0  0  0  0  0  0  0  0  0  0  0
   -1.8236    1.0473    1.8767 H   0  0  0  0  0  0  0  0  0  0  0  0
   -3.2579    1.2880    0.8564 H   0  0  0  0  0  0  0  0  0  0  0  0
   -2.7372   -0.3980    1.4039 H   0  0  0  0  0  0  0  0  0  0  0  0
   -1.9648    1.3441   -2.1747 H   0  0  0  0  0  0  0  0  0  0  0  0
   -3.4232    0.8635   -1.2575 H   0  0  0  0  0  0  0  0  0  0  0  0
   -2.3458   -0.4030   -1.9864 H   0  0  0  0  0  0  0  0  0  0  0  0
    2.9893    1.8094    0.0083 H   0  0  0  0  0  0  0  0  0  0  0  0
  1  2  1  0
  2  3  2  0
  3  4  1  0
  4  5  2  0
  5  6  1  0
  6  7  1  0
  7  8  1  0
  7  9  1  0
  5 10  1  0
 10 11  2  0
 11  2  1  0
  3 12  1  0
  4 13  1  0
  7 14  1  0
  8 15  1  0
  8 16  1  0
  8 17  1  0
  9 18  1  0
  9 19  1  0
  9 20  1  0
 11 21  1  0
M  END
