
     RDKit          3D

 15 15  0  0  0  0  0  0  0  0999 V2000
    2.1498   -1.3072    1.6964 R   0  0  0  0  0  1  0  0  0  0  0  0
    1.6337   -0.7953    1.1645 C   0  0  0  0  0  0  0  0  0  0  0  0
    2.1439    0.3700    0.6404 C   0  0  0  0  0  0  0  0  0  0  0  0
    1.3722    1.1816   -0.1839 C   0  0  0  0  0  0  0  0  0  0  0  0
    0.1200    0.7759   -0.4393 N   0  0  0  0  0  0  0  0  0  0  0  0
   -0.4239   -0.3328    0.0355 C   0  0  0  0  0  0  0  0  0  0  0  0
   -1.7186   -0.6987   -0.2622 O   0  0  0  0  0  0  0  0  0  0  0  0
   -2.5095    0.1343   -1.1078 C   0  0  0  0  0  0  0  0  0  0  0  0
    0.3457   -1.1395    0.8559 C   0  0  0  0  0  0  0  0  0  0  0  0
    3.1528    0.6552    0.8724 H   0  0  0  0  0  0  0  0  0  0  0  0
    1.8450    2.0718   -0.5504 H   0  0  0  0  0  0  0  0  0  0  0  0
   -3.5859   -0.0768   -1.0208 H   0  0  0  0  0  0  0  0  0  0  0  0
   -2.1693    0.0266   -2.1597 H   0  0  0  0  0  0  0  0  0  0  0  0
   -2.3259    1.2011   -0.8261 H   0  0  0  0  0  0  0  0  0  0  0  0
   -0.0298   -2.0662    1.2850 H   0  0  0  0  0  0  0  0  0  0  0  0
  1  2  1  0
  2  3  2  0
  3  4  1  0
  4  5  2  0
  5  6  1  0
  6  7  1  0
  7  8  1  0
  6  9  2  0
  9  2  1  0
  3 10  1  0
  4 11  1  0
  8 12  1  0
  8 13  1  0
  8 14  1  0
  9 15  1  0
M  END
