
     RDKit          3D

 17 17  0  0  0  0  0  0  0  0999 V2000
   -3.4422    0.2243    0.2236 R   0  0  0  0  0  1  0  0  0  0  0  0
   -2.5594    0.1222    0.1074 C   0  0  0  0  0  0  0  0  0  0  0  0
   -1.8796    0.9338   -0.7467 C   0  0  0  0  0  0  0  0  0  0  0  0
   -0.5149    0.8302   -0.9728 C   0  0  0  0  0  0  0  0  0  0  0  0
    0.1521   -0.1706   -0.2671 C   0  0  0  0  0  0  0  0  0  0  0  0
    1.8821   -0.4088   -0.4619 S   0  0  0  0  0  6  0  0  0  0  0  0
    2.7172    0.5612    0.6953 N   0  0  0  0  0  0  0  0  0  0  0  0
    2.1816   -1.8370   -0.1937 O   0  0  0  0  0  0  0  0  0  0  0  0
    2.3138   -0.0607   -1.8767 O   0  0  0  0  0  0  0  0  0  0  0  0
   -0.5296   -0.9975    0.6006 C   0  0  0  0  0  0  0  0  0  0  0  0
   -1.8995   -0.8586    0.7975 C   0  0  0  0  0  0  0  0  0  0  0  0
   -2.4096    1.7128   -1.2935 H   0  0  0  0  0  0  0  0  0  0  0  0
    0.0342    1.4562   -1.6374 H   0  0  0  0  0  0  0  0  0  0  0  0
    3.6989    0.2319    0.7765 H   0  0  0  0  0  0  0  0  0  0  0  0
    2.6424    1.5793    0.4401 H   0  0  0  0  0  0  0  0  0  0  0  0
   -0.0084   -1.7835    1.1553 H   0  0  0  0  0  0  0  0  0  0  0  0
   -2.3789   -1.5352    1.4894 H   0  0  0  0  0  0  0  0  0  0  0  0
  1  2  1  0
  2  3  2  0
  3  4  1  0
  4  5  2  0
  5  6  1  0
  6  7  1  0
  6  8  2  0
  6  9  2  0
  5 10  1  0
 10 11  2  0
 11  2  1  0
  3 12  1  0
  4 13  1  0
  7 14  1  0
  7 15  1  0
 10 16  1  0
 11 17  1  0
M  END
