
     RDKit          3D

 12 12  0  0  0  0  0  0  0  0999 V2000
   -2.8757    0.4419    0.1013 R   0  0  0  0  0  1  0  0  0  0  0  0
   -1.8956    0.3094    0.0738 C   0  0  0  0  0  0  0  0  0  0  0  0
   -1.4243   -0.8706   -0.4062 C   0  0  0  0  0  0  0  0  0  0  0  0
   -0.0658   -1.0697   -0.4508 N   0  0  0  0  0  0  0  0  0  0  0  0
    0.7660   -0.1097   -0.0258 C   0  0  0  0  0  0  0  0  0  0  0  0
    2.1817   -0.3563   -0.0887 N   0  0  0  0  0  0  0  0  0  0  0  0
    0.2612    1.0717    0.4537 C   0  0  0  0  0  0  0  0  0  0  0  0
   -1.1032    1.2570    0.4925 N   0  0  0  0  0  0  0  0  0  0  0  0
   -2.1172   -1.6265   -0.7419 H   0  0  0  0  0  0  0  0  0  0  0  0
    2.5892   -0.9913    0.6251 H   0  0  0  0  0  0  0  0  0  0  0  0
    2.7703    0.0929   -0.8311 H   0  0  0  0  0  0  0  0  0  0  0  0
    0.9133    1.8510    0.7981 H   0  0  0  0  0  0  0  0  0  0  0  0
  1  2  1  0
  2  3  2  0
  3  4  1  0
  4  5  2  0
  5  6  1  0
  5  7  1  0
  7  8  2  0
  8  2  1  0
  3  9  1  0
  6 10  1  0
  6 11  1  0
  7 12  1  0
M  END
