
     RDKit          3D

 14 14  0  0  0  0  0  0  0  0999 V2000
   -0.0196   -2.7052   -0.0424 R   0  0  0  0  0  1  0  0  0  0  0  0
   -0.0049   -1.6420   -0.0766 C   0  0  0  0  0  0  0  0  0  0  0  0
    1.1677   -1.0394   -0.1108 C   0  0  0  0  0  0  0  0  0  0  0  0
    1.1986    0.3791   -0.1567 C   0  0  0  0  0  0  0  0  0  0  0  0
    2.4316    0.9867   -0.1918 O   0  0  0  0  0  0  0  0  0  0  0  0
   -0.0001    1.0497   -0.1629 C   0  0  0  0  0  0  0  0  0  0  0  0
   -1.1857    0.3582   -0.1256 C   0  0  0  0  0  0  0  0  0  0  0  0
   -2.3907    1.0380   -0.1321 O   0  0  0  0  0  0  0  0  0  0  0  0
   -1.2077   -1.0583   -0.0800 C   0  0  0  0  0  0  0  0  0  0  0  0
    2.0911   -1.6024   -0.1046 H   0  0  0  0  0  0  0  0  0  0  0  0
    2.6625    1.8571    0.2431 H   0  0  0  0  0  0  0  0  0  0  0  0
    0.0097    2.1528   -0.1983 H   0  0  0  0  0  0  0  0  0  0  0  0
   -2.6050    1.8067    0.5124 H   0  0  0  0  0  0  0  0  0  0  0  0
   -2.1475   -1.5809   -0.0513 H   0  0  0  0  0  0  0  0  0  0  0  0
  1  2  1  0
  2  3  2  0
  3  4  1  0
  4  5  1  0
  4  6  2  0
  6  7  1  0
  7  8  1  0
  7  9  2  0
  9  2  1  0
  3 10  1  0
  5 11  1  0
  6 12  1  0
  8 13  1  0
  9 14  1  0
M  END
