
     RDKit          3D

 13 13  0  0  0  0  0  0  0  0999 V2000
   -0.2286    0.2193   -1.4327 R   0  0  0  0  0  1  0  0  0  0  0  0
    0.0237   -0.4150   -0.9806 C   0  0  0  0  0  0  0  0  0  0  0  0
   -0.9247   -0.4841    0.2252 C   0  0  0  0  0  0  0  0  0  0  0  0
   -0.4714    0.8128    0.9112 C   0  0  0  0  0  0  0  0  0  0  0  0
    0.8812    0.8800    0.7598 O   0  0  0  0  0  0  0  0  0  0  0  0
    1.2820    0.0409   -0.2465 C   0  0  0  0  0  0  0  0  0  0  0  0
    0.1418   -1.3775   -1.4737 H   0  0  0  0  0  0  0  0  0  0  0  0
   -0.6560   -1.3137    0.8908 H   0  0  0  0  0  0  0  0  0  0  0  0
   -1.9704   -0.4484   -0.0640 H   0  0  0  0  0  0  0  0  0  0  0  0
   -0.9389    1.6297    0.2914 H   0  0  0  0  0  0  0  0  0  0  0  0
   -0.8489    0.7830    1.9283 H   0  0  0  0  0  0  0  0  0  0  0  0
    1.7884   -0.8576    0.2005 H   0  0  0  0  0  0  0  0  0  0  0  0
    1.9216    0.5306   -1.0097 H   0  0  0  0  0  0  0  0  0  0  0  0
  1  2  1  0
  2  3  1  0
  3  4  1  0
  4  5  1  0
  5  6  1  0
  6  2  1  0
  2  7  1  0
  3  8  1  0
  3  9  1  0
  4 10  1  0
  4 11  1  0
  6 12  1  0
  6 13  1  0
M  END
