
     RDKit          3D

 12 12  0  0  0  0  0  0  0  0999 V2000
   -2.0251    1.2959   -0.0379 R   0  0  0  0  0  1  0  0  0  0  0  0
   -1.1502    0.7160   -0.0211 C   0  0  0  0  0  0  0  0  0  0  0  0
   -1.2904   -0.6088    0.0086 C   0  0  0  0  0  0  0  0  0  0  0  0
   -0.1094   -1.3877    0.0313 C   0  0  0  0  0  0  0  0  0  0  0  0
    1.1061   -0.7440    0.0216 C   0  0  0  0  0  0  0  0  0  0  0  0
    2.2728   -1.4779    0.0431 F   0  0  0  0  0  0  0  0  0  0  0  0
    1.1986    0.6311   -0.0095 C   0  0  0  0  0  0  0  0  0  0  0  0
    2.3741    1.2593   -0.0190 F   0  0  0  0  0  0  0  0  0  0  0  0
    0.0015    1.3878   -0.0317 C   0  0  0  0  0  0  0  0  0  0  0  0
   -2.2591   -1.0780    0.0153 H   0  0  0  0  0  0  0  0  0  0  0  0
   -0.2038   -2.4586    0.0553 H   0  0  0  0  0  0  0  0  0  0  0  0
    0.0849    2.4648   -0.0560 H   0  0  0  0  0  0  0  0  0  0  0  0
  1  2  1  0
  2  3  2  0
  3  4  1  0
  4  5  2  0
  5  6  1  0
  5  7  1  0
  7  8  1  0
  7  9  2  0
  9  2  1  0
  3 10  1  0
  4 11  1  0
  9 12  1  0
M  END
