
     RDKit          3D

  9  9  0  0  0  0  0  0  0  0999 V2000
   -1.7467   -1.1192   -0.7713 R   0  0  0  0  0  1  0  0  0  0  0  0
   -0.9710   -0.7285   -0.5240 C   0  0  0  0  0  0  0  0  0  0  0  0
   -0.6898    0.6029   -0.6455 C   0  0  0  0  0  0  0  0  0  0  0  0
    0.5905    0.7496   -0.1490 C   0  0  0  0  0  0  0  0  0  0  0  0
    1.0206   -0.5014    0.2485 C   0  0  0  0  0  0  0  0  0  0  0  0
    0.0452   -1.3320   -0.0022 O   0  0  0  0  0  0  0  0  0  0  0  0
   -1.3277    1.3615   -1.0404 H   0  0  0  0  0  0  0  0  0  0  0  0
    1.1072    1.7051   -0.1076 H   0  0  0  0  0  0  0  0  0  0  0  0
    1.9717   -0.7381    0.6787 H   0  0  0  0  0  0  0  0  0  0  0  0
  1  2  1  0
  2  3  2  0
  3  4  1  0
  4  5  2  0
  5  6  1  0
  6  2  1  0
  3  7  1  0
  4  8  1  0
  5  9  1  0
M  END
