
     RDKit          3D

 14 14  0  0  0  0  0  0  0  0999 V2000
   -3.0708   -0.5868   -0.0478 R   0  0  0  0  0  1  0  0  0  0  0  0
   -2.0969   -0.4878   -0.0481 C   0  0  0  0  0  0  0  0  0  0  0  0
   -1.6535    0.7833    0.1459 C   0  0  0  0  0  0  0  0  0  0  0  0
   -0.2728    1.0527    0.1659 C   0  0  0  0  0  0  0  0  0  0  0  0
    0.5643   -0.0124   -0.0165 C   0  0  0  0  0  0  0  0  0  0  0  0
    2.0432    0.1463   -0.0156 C   0  0  0  0  0  0  0  0  0  0  0  0
    0.0448   -1.2630   -0.2059 C   0  0  0  0  0  0  0  0  0  0  0  0
   -1.3082   -1.5082   -0.2226 N   0  0  0  0  0  0  0  0  0  0  0  0
   -2.3450    1.5734    0.2823 H   0  0  0  0  0  0  0  0  0  0  0  0
    0.1178    2.0341    0.3148 H   0  0  0  0  0  0  0  0  0  0  0  0
    2.4010   -0.2413   -0.9920 H   0  0  0  0  0  0  0  0  0  0  0  0
    2.4751   -0.5437    0.7607 H   0  0  0  0  0  0  0  0  0  0  0  0
    2.3745    1.1519    0.2282 H   0  0  0  0  0  0  0  0  0  0  0  0
    0.7267   -2.0985   -0.3494 H   0  0  0  0  0  0  0  0  0  0  0  0
  1  2  1  0
  2  3  2  0
  3  4  1  0
  4  5  2  0
  5  6  1  0
  5  7  1  0
  7  8  2  0
  8  2  1  0
  3  9  1  0
  4 10  1  0
  6 11  1  0
  6 12  1  0
  6 13  1  0
  7 14  1  0
M  END
