
     RDKit          3D

 21 21  0  0  0  0  0  0  0  0999 V2000
    3.6962    0.3655    0.9674 R   0  0  0  0  0  1  0  0  0  0  0  0
    2.8577    0.3035    0.7895 C   0  0  0  0  0  0  0  0  0  0  0  0
    2.1557   -0.8836    0.8726 C   0  0  0  0  0  0  0  0  0  0  0  0
    0.8038   -0.8946    0.5676 C   0  0  0  0  0  0  0  0  0  0  0  0
    0.1310    0.2455    0.1816 C   0  0  0  0  0  0  0  0  0  0  0  0
   -1.3387    0.2082   -0.1448 C   0  0  0  0  0  0  0  0  0  0  0  0
   -1.5928   -0.6930   -1.3374 C   0  0  0  0  0  0  0  0  0  0  0  0
   -2.1440   -0.2425    1.0438 C   0  0  0  0  0  0  0  0  0  0  0  0
    0.8649    1.4100    0.1104 C   0  0  0  0  0  0  0  0  0  0  0  0
    2.2115    1.4668    0.4049 C   0  0  0  0  0  0  0  0  0  0  0  0
    2.6967   -1.7619    1.1751 H   0  0  0  0  0  0  0  0  0  0  0  0
    0.2809   -1.8458    0.6431 H   0  0  0  0  0  0  0  0  0  0  0  0
   -1.6867    1.2204   -0.4309 H   0  0  0  0  0  0  0  0  0  0  0  0
   -1.6635   -1.7629   -1.0366 H   0  0  0  0  0  0  0  0  0  0  0  0
   -0.7574   -0.5659   -2.0792 H   0  0  0  0  0  0  0  0  0  0  0  0
   -2.5499   -0.3586   -1.7896 H   0  0  0  0  0  0  0  0  0  0  0  0
   -3.2059    0.0218    0.8557 H   0  0  0  0  0  0  0  0  0  0  0  0
   -1.8263    0.3776    1.9209 H   0  0  0  0  0  0  0  0  0  0  0  0
   -2.0540   -1.3198    1.2369 H   0  0  0  0  0  0  0  0  0  0  0  0
    0.3411    2.3110   -0.1928 H   0  0  0  0  0  0  0  0  0  0  0  0
    2.7797    2.3983    0.3436 H   0  0  0  0  0  0  0  0  0  0  0  0
  1  2  1  0
  2  3  2  0
  3  4  1  0
  4  5  2  0
  5  6  1  0
  6  7  1  0
  6  8  1  0
  5  9  1  0
  9 10  2  0
 10  2  1  0
  3 11  1  0
  4 12  1  0
  6 13  1  0
  7 14  1  0
  7 15  1  0
  7 16  1  0
  8 17  1  0
  8 18  1  0
  8 19  1  0
  9 20  1  0
 10 21  1  0
M  END
