
     RDKit          3D

 18 18  0  0  0  0  0  0  0  0999 V2000
   -3.8460    0.3885    0.2514 R   0  0  0  0  0  1  0  0  0  0  0  0
   -2.9969    0.2268    0.2022 C   0  0  0  0  0  0  0  0  0  0  0  0
   -2.4950   -1.0562    0.1498 C   0  0  0  0  0  0  0  0  0  0  0  0
   -1.1240   -1.2886    0.0709 C   0  0  0  0  0  0  0  0  0  0  0  0
   -0.2442   -0.2325    0.0440 C   0  0  0  0  0  0  0  0  0  0  0  0
    1.1986   -0.4785   -0.0391 C   0  0  0  0  0  0  0  0  0  0  0  0
    1.6196   -1.6639   -0.0851 O   0  0  0  0  0  0  0  0  0  0  0  0
    2.1263    0.5244   -0.0697 O   0  0  0  0  0  0  0  0  0  0  0  0
    3.5329    0.3025   -0.1504 C   0  0  0  0  0  0  0  0  0  0  0  0
   -0.7796    1.0365    0.0979 C   0  0  0  0  0  0  0  0  0  0  0  0
   -2.1286    1.2993    0.1762 C   0  0  0  0  0  0  0  0  0  0  0  0
   -3.1990   -1.8758    0.1719 H   0  0  0  0  0  0  0  0  0  0  0  0
   -0.7293   -2.2899    0.0299 H   0  0  0  0  0  0  0  0  0  0  0  0
    3.9095    0.3249    0.8956 H   0  0  0  0  0  0  0  0  0  0  0  0
    3.9713    1.2096   -0.6437 H   0  0  0  0  0  0  0  0  0  0  0  0
    3.7804   -0.6106   -0.6928 H   0  0  0  0  0  0  0  0  0  0  0  0
   -0.0716    1.8651    0.0758 H   0  0  0  0  0  0  0  0  0  0  0  0
   -2.5244    2.3186    0.2177 H   0  0  0  0  0  0  0  0  0  0  0  0
  1  2  1  0
  2  3  2  0
  3  4  1  0
  4  5  2  0
  5  6  1  0
  6  7  2  0
  6  8  1  0
  8  9  1  0
  5 10  1  0
 10 11  2  0
 11  2  1  0
  3 12  1  0
  4 13  1  0
  9 14  1  0
  9 15  1  0
  9 16  1  0
 10 17  1  0
 11 18  1  0
M  END
