
     RDKit          3D

 14 14  0  0  0  0  0  0  0  0999 V2000
   -2.9079    0.4860   -0.0276 R   0  0  0  0  0  1  0  0  0  0  0  0
   -2.0541    0.3235   -0.0277 C   0  0  0  0  0  0  0  0  0  0  0  0
   -1.1315    1.3029    0.2688 C   0  0  0  0  0  0  0  0  0  0  0  0
    0.2084    0.9716    0.2491 C   0  0  0  0  0  0  0  0  0  0  0  0
    0.6617   -0.2951   -0.0541 C   0  0  0  0  0  0  0  0  0  0  0  0
    2.1229   -0.6279   -0.0683 C   0  0  0  0  0  0  0  0  0  0  0  0
    2.6875   -0.4612   -1.2973 F   0  0  0  0  0  0  0  0  0  0  0  0
    2.8083    0.1095    0.8979 F   0  0  0  0  0  0  0  0  0  0  0  0
    2.3127   -1.9653    0.3019 F   0  0  0  0  0  0  0  0  0  0  0  0
   -0.2634   -1.2299   -0.3393 N   0  0  0  0  0  0  0  0  0  0  0  0
   -1.5751   -0.9314   -0.3266 C   0  0  0  0  0  0  0  0  0  0  0  0
   -1.4922    2.2894    0.5045 H   0  0  0  0  0  0  0  0  0  0  0  0
    0.9484    1.7224    0.4780 H   0  0  0  0  0  0  0  0  0  0  0  0
   -2.3256   -1.6945   -0.5592 H   0  0  0  0  0  0  0  0  0  0  0  0
  1  2  1  0
  2  3  2  0
  3  4  1  0
  4  5  2  0
  5  6  1  0
  6  7  1  0
  6  8  1  0
  6  9  1  0
  5 10  1  0
 10 11  2  0
 11  2  1  0
  3 12  1  0
  4 13  1  0
 11 14  1  0
M  END
