
     RDKit          3D

 11 11  0  0  0  0  0  0  0  0999 V2000
    2.1698    1.4819   -0.4125 R   0  0  0  0  0  1  0  0  0  0  0  0
    1.5635    0.7573   -0.2428 C   0  0  0  0  0  0  0  0  0  0  0  0
    2.0419   -0.5036   -0.0440 C   0  0  0  0  0  0  0  0  0  0  0  0
    0.5985   -1.3759    0.2051 S   0  0  0  0  0  0  0  0  0  0  0  0
   -0.5187   -0.0777    0.0398 C   0  0  0  0  0  0  0  0  0  0  0  0
   -2.0254   -0.1137    0.1413 C   0  0  0  0  0  0  0  0  0  0  0  0
    0.2785    0.9381   -0.1948 N   0  0  0  0  0  0  0  0  0  0  0  0
    3.0845   -0.7898   -0.0577 H   0  0  0  0  0  0  0  0  0  0  0  0
   -2.3417   -0.7670    0.9765 H   0  0  0  0  0  0  0  0  0  0  0  0
   -2.3622    0.9148    0.3719 H   0  0  0  0  0  0  0  0  0  0  0  0
   -2.4888   -0.4643   -0.7827 H   0  0  0  0  0  0  0  0  0  0  0  0
  1  2  1  0
  2  3  2  0
  3  4  1  0
  4  5  1  0
  5  6  1  0
  5  7  2  0
  7  2  1  0
  3  8  1  0
  6  9  1  0
  6 10  1  0
  6 11  1  0
M  END
