
     RDKit          3D

 18 18  0  0  0  0  0  0  0  0999 V2000
   -3.6544    0.3459   -0.0842 R   0  0  0  0  0  1  0  0  0  0  0  0
   -2.6242    0.1826   -0.1402 C   0  0  0  0  0  0  0  0  0  0  0  0
   -1.9087    1.0810   -0.8278 C   0  0  0  0  0  0  0  0  0  0  0  0
   -0.5077    0.9182   -0.9420 C   0  0  0  0  0  0  0  0  0  0  0  0
    0.0354   -0.1810   -0.3221 C   0  0  0  0  0  0  0  0  0  0  0  0
    1.7668   -0.4719   -0.4057 S   0  0  0  0  0  6  0  0  0  0  0  0
    2.5599    0.3321    0.9709 C   0  0  0  0  0  0  0  0  0  0  0  0
    2.0287   -1.9418   -0.2870 O   0  0  0  0  0  0  0  0  0  0  0  0
    2.3618    0.1121   -1.6580 O   0  0  0  0  0  0  0  0  0  0  0  0
   -0.7506   -1.0703    0.3706 C   0  0  0  0  0  0  0  0  0  0  0  0
   -2.1476   -0.8985    0.4784 C   0  0  0  0  0  0  0  0  0  0  0  0
   -2.3365    1.9459   -1.3155 H   0  0  0  0  0  0  0  0  0  0  0  0
    0.0636    1.6452   -1.4971 H   0  0  0  0  0  0  0  0  0  0  0  0
    2.1881   -0.0488    1.9478 H   0  0  0  0  0  0  0  0  0  0  0  0
    3.6617    0.2092    0.8680 H   0  0  0  0  0  0  0  0  0  0  0  0
    2.3496    1.4211    0.9320 H   0  0  0  0  0  0  0  0  0  0  0  0
   -0.3373   -1.9549    0.8732 H   0  0  0  0  0  0  0  0  0  0  0  0
   -2.7487   -1.6262    1.0387 H   0  0  0  0  0  0  0  0  0  0  0  0
  1  2  1  0
  2  3  2  0
  3  4  1  0
  4  5  2  0
  5  6  1  0
  6  7  1  0
  6  8  2  0
  6  9  2  0
  5 10  1  0
 10 11  2  0
 11  2  1  0
  3 12  1  0
  4 13  1  0
  7 14  1  0
  7 15  1  0
  7 16  1  0
 10 17  1  0
 11 18  1  0
M  END
