
     RDKit          3D

 18 18  0  0  0  0  0  0  0  0999 V2000
   -1.9414   -2.4310    0.0720 R   0  0  0  0  0  1  0  0  0  0  0  0
   -1.3307   -1.8604    0.0231 C   0  0  0  0  0  0  0  0  0  0  0  0
   -0.0356   -2.2790   -0.2913 C   0  0  0  0  0  0  0  0  0  0  0  0
    0.9832   -1.3709   -0.3785 C   0  0  0  0  0  0  0  0  0  0  0  0
    0.6925   -0.0317   -0.1468 C   0  0  0  0  0  0  0  0  0  0  0  0
    1.7566    0.9968   -0.2275 C   0  0  0  0  0  0  0  0  0  0  0  0
   -0.5839    0.3858    0.1637 C   0  0  0  0  0  0  0  0  0  0  0  0
   -0.8479    1.8271    0.4032 C   0  0  0  0  0  0  0  0  0  0  0  0
   -1.6195   -0.5177    0.2549 C   0  0  0  0  0  0  0  0  0  0  0  0
    0.1749   -3.3425   -0.4712 H   0  0  0  0  0  0  0  0  0  0  0  0
    1.9981   -1.6498   -0.6185 H   0  0  0  0  0  0  0  0  0  0  0  0
    1.3324    1.9964   -0.4138 H   0  0  0  0  0  0  0  0  0  0  0  0
    2.5426    0.7351   -0.9622 H   0  0  0  0  0  0  0  0  0  0  0  0
    2.2305    1.0462    0.7947 H   0  0  0  0  0  0  0  0  0  0  0  0
   -1.9104    2.0154    0.6531 H   0  0  0  0  0  0  0  0  0  0  0  0
   -0.6589    2.4247   -0.5323 H   0  0  0  0  0  0  0  0  0  0  0  0
   -0.1610    2.2475    1.1790 H   0  0  0  0  0  0  0  0  0  0  0  0
   -2.6215   -0.1922    0.4984 H   0  0  0  0  0  0  0  0  0  0  0  0
  1  2  1  0
  2  3  2  0
  3  4  1  0
  4  5  2  0
  5  6  1  0
  5  7  1  0
  7  8  1  0
  7  9  2  0
  9  2  1  0
  3 10  1  0
  4 11  1  0
  6 12  1  0
  6 13  1  0
  6 14  1  0
  8 15  1  0
  8 16  1  0
  8 17  1  0
  9 18  1  0
M  END
