
     RDKit          3D

 16 17  0  0  0  0  0  0  0  0999 V2000
    1.0143    2.2396    0.2802 R   0  0  0  0  0  1  0  0  0  0  0  0
    0.9422    1.2835    0.1617 C   0  0  0  0  0  0  0  0  0  0  0  0
    2.1313    0.6194    0.0831 C   0  0  0  0  0  0  0  0  0  0  0  0
    2.0725   -0.7741   -0.0895 C   0  0  0  0  0  0  0  0  0  0  0  0
    0.8153   -1.3650   -0.1664 C   0  0  0  0  0  0  0  0  0  0  0  0
   -0.3600   -0.6472   -0.0812 C   0  0  0  0  0  0  0  0  0  0  0  0
   -1.6577   -0.9876   -0.1272 N   0  0  0  0  0  0  0  0  0  0  0  0
   -2.4528    0.0893    0.0036 C   0  0  0  0  0  0  0  0  0  0  0  0
   -1.6057    1.1720    0.1402 C   0  0  0  0  0  0  0  0  0  0  0  0
   -0.3039    0.7376    0.0904 C   0  0  0  0  0  0  0  0  0  0  0  0
    3.0856    1.1213    0.1481 H   0  0  0  0  0  0  0  0  0  0  0  0
    2.9698   -1.3739   -0.1610 H   0  0  0  0  0  0  0  0  0  0  0  0
    0.8188   -2.4493   -0.3006 H   0  0  0  0  0  0  0  0  0  0  0  0
   -2.0094   -1.9746   -0.2504 H   0  0  0  0  0  0  0  0  0  0  0  0
   -3.5441    0.1071    0.0025 H   0  0  0  0  0  0  0  0  0  0  0  0
   -1.9161    2.2020    0.2667 H   0  0  0  0  0  0  0  0  0  0  0  0
  1  2  1  0
  2  3  2  0
  3  4  1  0
  4  5  2  0
  5  6  1  0
  6  7  1  0
  7  8  1  0
  8  9  2  0
  9 10  1  0
 10  2  1  0
 10  6  2  0
  3 11  1  0
  4 12  1  0
  5 13  1  0
  7 14  1  0
  8 15  1  0
  9 16  1  0
M  END
