
     RDKit          3D

 18 18  0  0  0  0  0  0  0  0999 V2000
   -0.2982    1.2326    1.0192 R   0  0  0  0  0  1  0  0  0  0  0  0
   -0.2897    1.4021    0.1580 C   0  0  0  0  0  0  0  0  0  0  0  0
   -1.3124    0.4429   -0.4207 C   0  0  0  0  0  0  0  0  0  0  0  0
   -1.0904   -0.8979    0.1787 C   0  0  0  0  0  0  0  0  0  0  0  0
    0.3109   -1.3679    0.2156 C   0  0  0  0  0  0  0  0  0  0  0  0
    1.3623   -0.3379    0.2928 C   0  0  0  0  0  0  0  0  0  0  0  0
    1.0382    0.9471   -0.4346 C   0  0  0  0  0  0  0  0  0  0  0  0
   -0.5106    2.4484   -0.0274 H   0  0  0  0  0  0  0  0  0  0  0  0
   -1.1687    0.4298   -1.5183 H   0  0  0  0  0  0  0  0  0  0  0  0
   -2.3124    0.8016   -0.1526 H   0  0  0  0  0  0  0  0  0  0  0  0
   -1.5588   -0.9157    1.2062 H   0  0  0  0  0  0  0  0  0  0  0  0
   -1.6806   -1.6422   -0.4329 H   0  0  0  0  0  0  0  0  0  0  0  0
    0.5613   -2.0595   -0.6423 H   0  0  0  0  0  0  0  0  0  0  0  0
    0.4116   -2.0347    1.1234 H   0  0  0  0  0  0  0  0  0  0  0  0
    2.3176   -0.7425   -0.1103 H   0  0  0  0  0  0  0  0  0  0  0  0
    1.5053   -0.0469    1.3737 H   0  0  0  0  0  0  0  0  0  0  0  0
    0.8785    0.6719   -1.5123 H   0  0  0  0  0  0  0  0  0  0  0  0
    1.8361    1.6687   -0.3163 H   0  0  0  0  0  0  0  0  0  0  0  0
  1  2  1  0
  2  3  1  0
  3  4  1  0
  4  5  1  0
  5  6  1  0
  6  7  1  0
  7  2  1  0
  2  8  1  0
  3  9  1  0
  3 10  1  0
  4 11  1  0
  4 12  1  0
  5 13  1  0
  5 14  1  0
  6 15  1  0
  6 16  1  0
  7 17  1  0
  7 18  1  0
M  END
