
     RDKit          3D

 15 15  0  0  0  0  0  0  0  0999 V2000
    1.8362   -0.4475   -0.5539 R   0  0  0  0  0  1  0  0  0  0  0  0
    1.2190   -0.3839    0.0438 C   0  0  0  0  0  0  0  0  0  0  0  0
    0.6917    1.0237    0.1856 C   0  0  0  0  0  0  0  0  0  0  0  0
   -0.8026    0.9582    0.0479 C   0  0  0  0  0  0  0  0  0  0  0  0
   -1.1049   -0.5187    0.3170 C   0  0  0  0  0  0  0  0  0  0  0  0
    0.0286   -1.1188   -0.5273 C   0  0  0  0  0  0  0  0  0  0  0  0
    1.5427   -0.8046    1.0222 H   0  0  0  0  0  0  0  0  0  0  0  0
    0.9653    1.4436    1.1714 H   0  0  0  0  0  0  0  0  0  0  0  0
    1.1308    1.6162   -0.6463 H   0  0  0  0  0  0  0  0  0  0  0  0
   -1.0332    1.1114   -1.0408 H   0  0  0  0  0  0  0  0  0  0  0  0
   -1.3528    1.6239    0.7069 H   0  0  0  0  0  0  0  0  0  0  0  0
   -2.0826   -0.8179   -0.1138 H   0  0  0  0  0  0  0  0  0  0  0  0
   -0.9913   -0.7558    1.3806 H   0  0  0  0  0  0  0  0  0  0  0  0
   -0.1318   -0.7306   -1.5503 H   0  0  0  0  0  0  0  0  0  0  0  0
    0.0850   -2.1991   -0.4429 H   0  0  0  0  0  0  0  0  0  0  0  0
  1  2  1  0
  2  3  1  0
  3  4  1  0
  4  5  1  0
  5  6  1  0
  6  2  1  0
  2  7  1  0
  3  8  1  0
  3  9  1  0
  4 10  1  0
  4 11  1  0
  5 12  1  0
  5 13  1  0
  6 14  1  0
  6 15  1  0
M  END
