
     RDKit          3D

 11 11  0  0  0  0  0  0  0  0999 V2000
    1.8879    1.2094    0.0943 R   0  0  0  0  0  1  0  0  0  0  0  0
    1.0834    0.6386    0.0523 C   0  0  0  0  0  0  0  0  0  0  0  0
   -0.1358    1.1755    0.0356 C   0  0  0  0  0  0  0  0  0  0  0  0
   -1.2190    0.2802   -0.0252 C   0  0  0  0  0  0  0  0  0  0  0  0
   -1.0305   -1.0823   -0.0657 C   0  0  0  0  0  0  0  0  0  0  0  0
    0.2236   -1.5605   -0.0461 N   0  0  0  0  0  0  0  0  0  0  0  0
    1.2925   -0.7055    0.0130 C   0  0  0  0  0  0  0  0  0  0  0  0
   -0.3124    2.2266    0.0660 H   0  0  0  0  0  0  0  0  0  0  0  0
   -2.2200    0.6544   -0.0411 H   0  0  0  0  0  0  0  0  0  0  0  0
   -1.8820   -1.7729   -0.1131 H   0  0  0  0  0  0  0  0  0  0  0  0
    2.3124   -1.0635    0.0300 H   0  0  0  0  0  0  0  0  0  0  0  0
  1  2  1  0
  2  3  2  0
  3  4  1  0
  4  5  2  0
  5  6  1  0
  6  7  2  0
  7  2  1  0
  3  8  1  0
  4  9  1  0
  5 10  1  0
  7 11  1  0
M  END
