
     RDKit          3D

 25 26  0  0  0  0  0  0  0  0999 V2000
   -4.5446   -0.1965    0.1643 R   0  0  0  0  0  1  0  0  0  0  0  0
   -3.6224   -0.1769    0.1313 C   0  0  0  0  0  0  0  0  0  0  0  0
   -2.9178   -1.3231    0.3269 C   0  0  0  0  0  0  0  0  0  0  0  0
   -1.5197   -1.2763    0.2736 C   0  0  0  0  0  0  0  0  0  0  0  0
   -0.8712   -0.0986    0.0290 C   0  0  0  0  0  0  0  0  0  0  0  0
    0.5390   -0.0249   -0.0284 N   0  0  0  0  0  0  0  0  0  0  0  0
    1.2931   -1.2406    0.2177 C   0  0  0  0  0  0  0  0  0  0  0  0
    2.6996   -0.8633    0.5421 C   0  0  0  0  0  0  0  0  0  0  0  0
    3.2175   -0.0219   -0.4360 O   0  0  0  0  0  0  0  0  0  0  0  0
    2.6360    1.2193   -0.4511 C   0  0  0  0  0  0  0  0  0  0  0  0
    1.1574    1.2388   -0.3268 C   0  0  0  0  0  0  0  0  0  0  0  0
   -1.6117    1.0418   -0.1644 C   0  0  0  0  0  0  0  0  0  0  0  0
   -3.0068    1.0117   -0.1144 C   0  0  0  0  0  0  0  0  0  0  0  0
   -3.4426   -2.2553    0.5210 H   0  0  0  0  0  0  0  0  0  0  0  0
   -0.9805   -2.2047    0.4326 H   0  0  0  0  0  0  0  0  0  0  0  0
    1.2347   -1.9194   -0.6504 H   0  0  0  0  0  0  0  0  0  0  0  0
    0.8727   -1.7437    1.1329 H   0  0  0  0  0  0  0  0  0  0  0  0
    3.3157   -1.7950    0.5139 H   0  0  0  0  0  0  0  0  0  0  0  0
    2.7775   -0.4343    1.5570 H   0  0  0  0  0  0  0  0  0  0  0  0
    2.8969    1.6854   -1.4469 H   0  0  0  0  0  0  0  0  0  0  0  0
    3.1000    1.9225    0.2965 H   0  0  0  0  0  0  0  0  0  0  0  0
    0.8498    1.9495    0.4729 H   0  0  0  0  0  0  0  0  0  0  0  0
    0.6513    1.6167   -1.2637 H   0  0  0  0  0  0  0  0  0  0  0  0
   -1.1354    1.9804   -0.3577 H   0  0  0  0  0  0  0  0  0  0  0  0
   -3.5887    1.9084   -0.2665 H   0  0  0  0  0  0  0  0  0  0  0  0
  1  2  1  0
  2  3  2  0
  3  4  1  0
  4  5  2  0
  5  6  1  0
  6  7  1  0
  7  8  1  0
  8  9  1  0
  9 10  1  0
 10 11  1  0
  5 12  1  0
 12 13  2  0
 13  2  1  0
 11  6  1  0
  3 14  1  0
  4 15  1  0
  7 16  1  0
  7 17  1  0
  8 18  1  0
  8 19  1  0
 10 20  1  0
 10 21  1  0
 11 22  1  0
 11 23  1  0
 12 24  1  0
 13 25  1  0
M  END
