
     RDKit          3D

 12 12  0  0  0  0  0  0  0  0999 V2000
   -0.7043   -2.1725    0.0009 R   0  0  0  0  0  1  0  0  0  0  0  0
   -0.4842   -1.3390    0.0005 C   0  0  0  0  0  0  0  0  0  0  0  0
   -1.4264   -0.3306   -0.0024 C   0  0  0  0  0  0  0  0  0  0  0  0
   -1.0259    1.0076   -0.0031 C   0  0  0  0  0  0  0  0  0  0  0  0
    0.3350    1.2656   -0.0007 C   0  0  0  0  0  0  0  0  0  0  0  0
    1.2882    0.2697    0.0022 C   0  0  0  0  0  0  0  0  0  0  0  0
    3.0108    0.6617    0.0052 Cl  0  0  0  0  0  0  0  0  0  0  0  0
    0.8703   -1.0446    0.0028 C   0  0  0  0  0  0  0  0  0  0  0  0
   -2.4853   -0.5840   -0.0043 H   0  0  0  0  0  0  0  0  0  0  0  0
   -1.7410    1.7950   -0.0053 H   0  0  0  0  0  0  0  0  0  0  0  0
    0.7240    2.2886   -0.0010 H   0  0  0  0  0  0  0  0  0  0  0  0
    1.6388   -1.8173    0.0052 H   0  0  0  0  0  0  0  0  0  0  0  0
  1  2  1  0
  2  3  2  0
  3  4  1  0
  4  5  2  0
  5  6  1  0
  6  7  1  0
  6  8  2  0
  8  2  1  0
  3  9  1  0
  4 10  1  0
  5 11  1  0
  8 12  1  0
M  END
