
     RDKit          3D

 12 12  0  0  0  0  0  0  0  0999 V2000
    2.2776   -1.5882   -0.0431 R   0  0  0  0  0  1  0  0  0  0  0  0
    1.5741   -0.9713   -0.0303 C   0  0  0  0  0  0  0  0  0  0  0  0
    1.7482    0.3940   -0.0247 C   0  0  0  0  0  0  0  0  0  0  0  0
    0.4378    0.8742   -0.0046 C   0  0  0  0  0  0  0  0  0  0  0  0
   -0.4400   -0.1449    0.0012 N   0  0  0  0  0  0  0  0  0  0  0  0
   -1.9010   -0.0541    0.0211 C   0  0  0  0  0  0  0  0  0  0  0  0
    0.2811   -1.2544   -0.0147 N   0  0  0  0  0  0  0  0  0  0  0  0
    2.6660    0.9685   -0.0336 H   0  0  0  0  0  0  0  0  0  0  0  0
    0.1675    1.9293    0.0050 H   0  0  0  0  0  0  0  0  0  0  0  0
   -2.2697    0.1776    1.0533 H   0  0  0  0  0  0  0  0  0  0  0  0
   -2.2986   -1.0530   -0.2402 H   0  0  0  0  0  0  0  0  0  0  0  0
   -2.2432    0.7224   -0.6894 H   0  0  0  0  0  0  0  0  0  0  0  0
  1  2  1  0
  2  3  1  0
  3  4  2  0
  4  5  1  0
  5  6  1  0
  5  7  1  0
  7  2  2  0
  3  8  1  0
  4  9  1  0
  6 10  1  0
  6 11  1  0
  6 12  1  0
M  END
