
     RDKit          3D

 16 17  0  0  0  0  0  0  0  0999 V2000
   -2.7914   -1.4192    0.1415 R   0  0  0  0  0  1  0  0  0  0  0  0
   -2.0090   -0.8330    0.0925 C   0  0  0  0  0  0  0  0  0  0  0  0
   -2.1629    0.5037    0.0295 C   0  0  0  0  0  0  0  0  0  0  0  0
   -0.9919    1.2760   -0.0387 C   0  0  0  0  0  0  0  0  0  0  0  0
    0.2733    0.7044   -0.0421 C   0  0  0  0  0  0  0  0  0  0  0  0
    1.5182    1.2035   -0.0986 N   0  0  0  0  0  0  0  0  0  0  0  0
    2.4209    0.2164   -0.0720 C   0  0  0  0  0  0  0  0  0  0  0  0
    1.7084   -0.9557    0.0046 C   0  0  0  0  0  0  0  0  0  0  0  0
    0.3676   -0.6659    0.0240 C   0  0  0  0  0  0  0  0  0  0  0  0
   -0.8063   -1.4576    0.0933 C   0  0  0  0  0  0  0  0  0  0  0  0
   -3.1089    1.0229    0.0274 H   0  0  0  0  0  0  0  0  0  0  0  0
   -1.0702    2.3437   -0.0902 H   0  0  0  0  0  0  0  0  0  0  0  0
    1.7256    2.2232   -0.1548 H   0  0  0  0  0  0  0  0  0  0  0  0
    3.5235    0.3210   -0.1051 H   0  0  0  0  0  0  0  0  0  0  0  0
    2.0891   -1.9664    0.0455 H   0  0  0  0  0  0  0  0  0  0  0  0
   -0.6858   -2.5170    0.1432 H   0  0  0  0  0  0  0  0  0  0  0  0
  1  2  1  0
  2  3  2  0
  3  4  1  0
  4  5  2  0
  5  6  1  0
  6  7  1  0
  7  8  2  0
  8  9  1  0
  9 10  2  0
 10  2  1  0
  9  5  1  0
  3 11  1  0
  4 12  1  0
  6 13  1  0
  7 14  1  0
  8 15  1  0
 10 16  1  0
M  END
