
     RDKit          3D

 22 23  0  0  0  0  0  0  0  0999 V2000
   -3.2991    1.8469   -0.3399 R   0  0  0  0  0  1  0  0  0  0  0  0
   -2.8056    1.0577   -0.2568 C   0  0  0  0  0  0  0  0  0  0  0  0
   -3.5177   -0.1141   -0.2235 C   0  0  0  0  0  0  0  0  0  0  0  0
   -2.7671   -1.2842   -0.0985 C   0  0  0  0  0  0  0  0  0  0  0  0
   -1.3940   -1.2926   -0.0117 C   0  0  0  0  0  0  0  0  0  0  0  0
   -0.7191   -0.0925   -0.0494 C   0  0  0  0  0  0  0  0  0  0  0  0
    0.7382   -0.0229    0.0384 C   0  0  0  0  0  0  0  0  0  0  0  0
    1.5281   -1.0222   -0.4671 C   0  0  0  0  0  0  0  0  0  0  0  0
    2.8975   -0.8795   -0.3443 C   0  0  0  0  0  0  0  0  0  0  0  0
    3.4771    0.2137    0.2576 C   0  0  0  0  0  0  0  0  0  0  0  0
    2.6774    1.2322    0.7732 C   0  0  0  0  0  0  0  0  0  0  0  0
    1.3132    1.0694    0.6397 C   0  0  0  0  0  0  0  0  0  0  0  0
   -1.4448    1.1018   -0.1746 C   0  0  0  0  0  0  0  0  0  0  0  0
   -4.6044   -0.1375   -0.2896 H   0  0  0  0  0  0  0  0  0  0  0  0
   -3.2705   -2.2496   -0.0660 H   0  0  0  0  0  0  0  0  0  0  0  0
   -0.8148   -2.2030    0.0847 H   0  0  0  0  0  0  0  0  0  0  0  0
    1.1036   -1.9058   -0.9515 H   0  0  0  0  0  0  0  0  0  0  0  0
    3.5341   -1.6601   -0.7359 H   0  0  0  0  0  0  0  0  0  0  0  0
    4.5542    0.3275    0.3570 H   0  0  0  0  0  0  0  0  0  0  0  0
    3.1076    2.1077    1.2539 H   0  0  0  0  0  0  0  0  0  0  0  0
    0.6686    1.8420    1.0282 H   0  0  0  0  0  0  0  0  0  0  0  0
   -0.9624    2.0652   -0.2081 H   0  0  0  0  0  0  0  0  0  0  0  0
  1  2  1  0
  2  3  2  0
  3  4  1  0
  4  5  2  0
  5  6  1  0
  6  7  1  0
  7  8  2  0
  8  9  1  0
  9 10  2  0
 10 11  1  0
 11 12  2  0
  6 13  2  0
 13  2  1  0
 12  7  1  0
  3 14  1  0
  4 15  1  0
  5 16  1  0
  8 17  1  0
  9 18  1  0
 10 19  1  0
 11 20  1  0
 12 21  1  0
 13 22  1  0
M  END
