
     RDKit          3D

 16 16  0  0  0  0  0  0  0  0999 V2000
   -3.1884   -0.0036    0.3242 R   0  0  0  0  0  1  0  0  0  0  0  0
   -2.2868   -0.0304    0.2135 C   0  0  0  0  0  0  0  0  0  0  0  0
   -1.5820   -1.1923    0.4073 C   0  0  0  0  0  0  0  0  0  0  0  0
   -0.2067   -1.1611    0.2207 C   0  0  0  0  0  0  0  0  0  0  0  0
    0.4664   -0.0195   -0.1475 C   0  0  0  0  0  0  0  0  0  0  0  0
    1.9325   -0.0998   -0.3186 C   0  0  0  0  0  0  0  0  0  0  0  0
    2.6122    0.1744    0.8522 O   0  0  0  0  0  0  0  0  0  0  0  0
   -0.2473    1.1446   -0.3407 C   0  0  0  0  0  0  0  0  0  0  0  0
   -1.6270    1.1016   -0.1506 C   0  0  0  0  0  0  0  0  0  0  0  0
   -2.0674   -2.0945    0.6922 H   0  0  0  0  0  0  0  0  0  0  0  0
    0.3108   -2.1132    0.3873 H   0  0  0  0  0  0  0  0  0  0  0  0
    2.1720   -1.1294   -0.7142 H   0  0  0  0  0  0  0  0  0  0  0  0
    2.2185    0.6029   -1.1096 H   0  0  0  0  0  0  0  0  0  0  0  0
    3.3939    0.7380    0.6230 H   0  0  0  0  0  0  0  0  0  0  0  0
    0.2653    2.0596   -0.6323 H   0  0  0  0  0  0  0  0  0  0  0  0
   -2.1660    2.0227   -0.3069 H   0  0  0  0  0  0  0  0  0  0  0  0
  1  2  1  0
  2  3  2  0
  3  4  1  0
  4  5  2  0
  5  6  1  0
  6  7  1  0
  5  8  1  0
  8  9  2  0
  9  2  1  0
  3 10  1  0
  4 11  1  0
  6 12  1  0
  6 13  1  0
  7 14  1  0
  8 15  1  0
  9 16  1  0
M  END
