
     RDKit          3D

 10 10  0  0  0  0  0  0  0  0999 V2000
    0.9422    1.6799    0.2365 R   0  0  0  0  0  1  0  0  0  0  0  0
    0.5987    0.8551    0.1190 C   0  0  0  0  0  0  0  0  0  0  0  0
   -0.7857    0.6789    0.1090 C   0  0  0  0  0  0  0  0  0  0  0  0
   -1.3108   -0.5771   -0.0699 C   0  0  0  0  0  0  0  0  0  0  0  0
   -0.4556   -1.5934   -0.2294 N   0  0  0  0  0  0  0  0  0  0  0  0
    0.8635   -1.4237   -0.2195 N   0  0  0  0  0  0  0  0  0  0  0  0
    1.4337   -0.2231   -0.0493 C   0  0  0  0  0  0  0  0  0  0  0  0
   -1.4338    1.5364    0.2427 H   0  0  0  0  0  0  0  0  0  0  0  0
   -2.3574   -0.7734   -0.0868 H   0  0  0  0  0  0  0  0  0  0  0  0
    2.5051   -0.1597   -0.0523 H   0  0  0  0  0  0  0  0  0  0  0  0
  1  2  1  0
  2  3  2  0
  3  4  1  0
  4  5  2  0
  5  6  1  0
  6  7  2  0
  7  2  1  0
  3  8  1  0
  4  9  1  0
  7 10  1  0
M  END
