
     RDKit          3D

 22 22  0  0  0  0  0  0  0  0999 V2000
   -2.8914   -0.1146   -0.3791 R   0  0  0  0  0  1  0  0  0  0  0  0
   -2.1257    0.1164    0.1668 C   0  0  0  0  0  0  0  0  0  0  0  0
   -1.5073   -1.1834    0.4664 C   0  0  0  0  0  0  0  0  0  0  0  0
   -0.2519   -1.4820   -0.3298 C   0  0  0  0  0  0  0  0  0  0  0  0
    0.6108   -0.3307   -0.2024 N   0  0  0  0  0  0  0  0  0  0  0  0
    1.9054   -0.5265    0.3399 C   0  0  0  0  0  0  0  0  0  0  0  0
    2.7783    0.6804    0.4612 C   0  0  0  0  0  0  0  0  0  0  0  0
    2.3080   -1.6663    0.7055 O   0  0  0  0  0  0  0  0  0  0  0  0
    0.1256    0.9417   -0.6245 C   0  0  0  0  0  0  0  0  0  0  0  0
   -1.3372    1.1465   -0.4919 C   0  0  0  0  0  0  0  0  0  0  0  0
   -2.6928    0.4855    1.0547 H   0  0  0  0  0  0  0  0  0  0  0  0
   -1.2686   -1.2129    1.5705 H   0  0  0  0  0  0  0  0  0  0  0  0
   -2.1827   -2.0584    0.3120 H   0  0  0  0  0  0  0  0  0  0  0  0
    0.1927   -2.3953    0.1012 H   0  0  0  0  0  0  0  0  0  0  0  0
   -0.5273   -1.5802   -1.3817 H   0  0  0  0  0  0  0  0  0  0  0  0
    3.8043    0.3204    0.6700 H   0  0  0  0  0  0  0  0  0  0  0  0
    2.7291    1.2351   -0.4912 H   0  0  0  0  0  0  0  0  0  0  0  0
    2.3872    1.3377    1.2740 H   0  0  0  0  0  0  0  0  0  0  0  0
    0.7213    1.7192   -0.0582 H   0  0  0  0  0  0  0  0  0  0  0  0
    0.4724    1.0828   -1.6917 H   0  0  0  0  0  0  0  0  0  0  0  0
   -1.7577    1.3572   -1.5209 H   0  0  0  0  0  0  0  0  0  0  0  0
   -1.4924    2.1275    0.0490 H   0  0  0  0  0  0  0  0  0  0  0  0
  1  2  1  0
  2  3  1  0
  3  4  1  0
  4  5  1  0
  5  6  1  0
  6  7  1  0
  6  8  2  0
  5  9  1  0
  9 10  1  0
 10  2  1  0
  2 11  1  0
  3 12  1  0
  3 13  1  0
  4 14  1  0
  4 15  1  0
  7 16  1  0
  7 17  1  0
  7 18  1  0
  9 19  1  0
  9 20  1  0
 10 21  1  0
 10 22  1  0
M  END
