
     RDKit          3D

 14 14  0  0  0  0  0  0  0  0999 V2000
   -1.8940   -2.1093    0.0253 R   0  0  0  0  0  1  0  0  0  0  0  0
   -1.5154   -1.2759   -0.0131 C   0  0  0  0  0  0  0  0  0  0  0  0
   -0.1645   -1.1623    0.0836 C   0  0  0  0  0  0  0  0  0  0  0  0
    0.4819    0.0650    0.0341 C   0  0  0  0  0  0  0  0  0  0  0  0
    1.9652    0.1211    0.1458 C   0  0  0  0  0  0  0  0  0  0  0  0
   -0.3028    1.1736   -0.1180 C   0  0  0  0  0  0  0  0  0  0  0  0
   -1.6703    1.0192   -0.2126 C   0  0  0  0  0  0  0  0  0  0  0  0
   -2.2749   -0.1947   -0.1609 N   0  0  0  0  0  0  0  0  0  0  0  0
    0.4198   -2.0538    0.2022 H   0  0  0  0  0  0  0  0  0  0  0  0
    2.3491    1.0953   -0.2121 H   0  0  0  0  0  0  0  0  0  0  0  0
    2.2704   -0.1023    1.1972 H   0  0  0  0  0  0  0  0  0  0  0  0
    2.4502   -0.6683   -0.4748 H   0  0  0  0  0  0  0  0  0  0  0  0
    0.1515    2.1592   -0.1628 H   0  0  0  0  0  0  0  0  0  0  0  0
   -2.2662    1.9331   -0.3340 H   0  0  0  0  0  0  0  0  0  0  0  0
  1  2  1  0
  2  3  2  0
  3  4  1  0
  4  5  1  0
  4  6  2  0
  6  7  1  0
  7  8  2  0
  8  2  1  0
  3  9  1  0
  5 10  1  0
  5 11  1  0
  5 12  1  0
  6 13  1  0
  7 14  1  0
M  END
