
     RDKit          3D

 12 12  0  0  0  0  0  0  0  0999 V2000
    0.0835   -1.0531   -1.0954 R   0  0  0  0  0  1  0  0  0  0  0  0
    0.0547   -1.0318   -0.2651 C   0  0  0  0  0  0  0  0  0  0  0  0
   -1.0438   -0.0518    0.1672 C   0  0  0  0  0  0  0  0  0  0  0  0
   -0.0399    1.0434   -0.2213 C   0  0  0  0  0  0  0  0  0  0  0  0
    1.0312    0.0416    0.2263 C   0  0  0  0  0  0  0  0  0  0  0  0
    0.0681   -1.9643    0.2912 H   0  0  0  0  0  0  0  0  0  0  0  0
   -1.1677   -0.1064    1.2767 H   0  0  0  0  0  0  0  0  0  0  0  0
   -1.9511   -0.0795   -0.4290 H   0  0  0  0  0  0  0  0  0  0  0  0
   -0.0218    1.1385   -1.3235 H   0  0  0  0  0  0  0  0  0  0  0  0
   -0.0986    1.9543    0.3651 H   0  0  0  0  0  0  0  0  0  0  0  0
    1.9723    0.0971   -0.3278 H   0  0  0  0  0  0  0  0  0  0  0  0
    1.1132    0.0120    1.3355 H   0  0  0  0  0  0  0  0  0  0  0  0
  1  2  1  0
  2  3  1  0
  3  4  1  0
  4  5  1  0
  5  2  1  0
  2  6  1  0
  3  7  1  0
  3  8  1  0
  4  9  1  0
  4 10  1  0
  5 11  1  0
  5 12  1  0
M  END
