
     RDKit          3D

 19 19  0  0  0  0  0  0  0  0999 V2000
    3.5062    0.6446   -0.8234 R   0  0  0  0  0  1  0  0  0  0  0  0
    2.7477    0.3624   -0.5462 C   0  0  0  0  0  0  0  0  0  0  0  0
    1.6868    1.2409   -0.4832 C   0  0  0  0  0  0  0  0  0  0  0  0
    0.4240    0.8408   -0.0395 C   0  0  0  0  0  0  0  0  0  0  0  0
    0.2763   -0.4708    0.3348 C   0  0  0  0  0  0  0  0  0  0  0  0
   -0.9238   -0.9204    0.7737 O   0  0  0  0  0  0  0  0  0  0  0  0
   -2.1298   -0.2511    0.9268 C   0  0  0  0  0  0  0  0  0  0  0  0
   -2.5687    0.2834   -0.4176 C   0  0  0  0  0  0  0  0  0  0  0  0
    1.3429   -1.3368    0.2670 C   0  0  0  0  0  0  0  0  0  0  0  0
    2.5960   -0.9536   -0.1696 C   0  0  0  0  0  0  0  0  0  0  0  0
    1.7793    2.2820   -0.7736 H   0  0  0  0  0  0  0  0  0  0  0  0
   -0.3834    1.5747   -0.0067 H   0  0  0  0  0  0  0  0  0  0  0  0
   -2.8901   -0.9954    1.2435 H   0  0  0  0  0  0  0  0  0  0  0  0
   -2.1019    0.5511    1.6970 H   0  0  0  0  0  0  0  0  0  0  0  0
   -1.7950    0.0514   -1.1965 H   0  0  0  0  0  0  0  0  0  0  0  0
   -2.7394    1.3817   -0.3897 H   0  0  0  0  0  0  0  0  0  0  0  0
   -3.4828   -0.2328   -0.7493 H   0  0  0  0  0  0  0  0  0  0  0  0
    1.2264   -2.3868    0.5662 H   0  0  0  0  0  0  0  0  0  0  0  0
    3.4293   -1.6652   -0.2137 H   0  0  0  0  0  0  0  0  0  0  0  0
  1  2  1  0
  2  3  2  0
  3  4  1  0
  4  5  2  0
  5  6  1  0
  6  7  1  0
  7  8  1  0
  5  9  1  0
  9 10  2  0
 10  2  1  0
  3 11  1  0
  4 12  1  0
  7 13  1  0
  7 14  1  0
  8 15  1  0
  8 16  1  0
  8 17  1  0
  9 18  1  0
 10 19  1  0
M  END
