
     RDKit          3D

 18 19  0  0  0  0  0  0  0  0999 V2000
   -1.1161   -2.3335    0.0477 R   0  0  0  0  0  1  0  0  0  0  0  0
   -1.1612   -1.4479    0.0522 C   0  0  0  0  0  0  0  0  0  0  0  0
   -2.3756   -0.7982    0.1125 C   0  0  0  0  0  0  0  0  0  0  0  0
   -2.4233    0.5907    0.1185 C   0  0  0  0  0  0  0  0  0  0  0  0
   -1.2427    1.3001    0.0634 C   0  0  0  0  0  0  0  0  0  0  0  0
   -0.0051    0.6806    0.0020 C   0  0  0  0  0  0  0  0  0  0  0  0
    1.1762    1.4079   -0.0530 C   0  0  0  0  0  0  0  0  0  0  0  0
    2.4030    0.7799   -0.1139 C   0  0  0  0  0  0  0  0  0  0  0  0
    2.4112   -0.6036   -0.1180 C   0  0  0  0  0  0  0  0  0  0  0  0
    1.2316   -1.3264   -0.0629 C   0  0  0  0  0  0  0  0  0  0  0  0
    0.0079   -0.6991   -0.0022 C   0  0  0  0  0  0  0  0  0  0  0  0
   -3.2841   -1.3677    0.1549 H   0  0  0  0  0  0  0  0  0  0  0  0
   -3.3847    1.1080    0.1663 H   0  0  0  0  0  0  0  0  0  0  0  0
   -1.2838    2.3917    0.0683 H   0  0  0  0  0  0  0  0  0  0  0  0
    1.1505    2.4976   -0.0489 H   0  0  0  0  0  0  0  0  0  0  0  0
    3.3324    1.3532   -0.1573 H   0  0  0  0  0  0  0  0  0  0  0  0
    3.3436   -1.1122   -0.1643 H   0  0  0  0  0  0  0  0  0  0  0  0
    1.2202   -2.4210   -0.0653 H   0  0  0  0  0  0  0  0  0  0  0  0
  1  2  1  0
  2  3  2  0
  3  4  1  0
  4  5  2  0
  5  6  1  0
  6  7  2  0
  7  8  1  0
  8  9  2  0
  9 10  1  0
 10 11  2  0
 11  2  1  0
 11  6  1  0
  3 12  1  0
  4 13  1  0
  5 14  1  0
  7 15  1  0
  8 16  1  0
  9 17  1  0
 10 18  1  0
M  END
