
     RDKit          3D

 17 18  0  0  0  0  0  0  0  0999 V2000
    1.0986   -2.3866   -0.3913 R   0  0  0  0  0  1  0  0  0  0  0  0
    1.1026   -1.4836   -0.2510 C   0  0  0  0  0  0  0  0  0  0  0  0
    2.3135   -0.8274   -0.1712 C   0  0  0  0  0  0  0  0  0  0  0  0
    2.3511    0.5364    0.0402 C   0  0  0  0  0  0  0  0  0  0  0  0
    1.1449    1.2005    0.1656 C   0  0  0  0  0  0  0  0  0  0  0  0
   -0.0722    0.5374    0.0849 C   0  0  0  0  0  0  0  0  0  0  0  0
   -1.2747    1.2056    0.2109 C   0  0  0  0  0  0  0  0  0  0  0  0
   -2.4582    0.5024    0.1234 C   0  0  0  0  0  0  0  0  0  0  0  0
   -2.4719   -0.8609   -0.0884 C   0  0  0  0  0  0  0  0  0  0  0  0
   -1.2884   -1.4904   -0.2081 N   0  0  0  0  0  0  0  0  0  0  0  0
   -0.1021   -0.8395   -0.1287 C   0  0  0  0  0  0  0  0  0  0  0  0
    3.2740   -1.3539   -0.2707 H   0  0  0  0  0  0  0  0  0  0  0  0
    3.2943    1.0602    0.1042 H   0  0  0  0  0  0  0  0  0  0  0  0
    1.1476    2.2640    0.3309 H   0  0  0  0  0  0  0  0  0  0  0  0
   -1.2377    2.2743    0.3765 H   0  0  0  0  0  0  0  0  0  0  0  0
   -3.4042    1.0195    0.2212 H   0  0  0  0  0  0  0  0  0  0  0  0
   -3.4174   -1.3579   -0.1483 H   0  0  0  0  0  0  0  0  0  0  0  0
  1  2  1  0
  2  3  2  0
  3  4  1  0
  4  5  2  0
  5  6  1  0
  6  7  2  0
  7  8  1  0
  8  9  2  0
  9 10  1  0
 10 11  2  0
 11  2  1  0
 11  6  1  0
  3 12  1  0
  4 13  1  0
  5 14  1  0
  7 15  1  0
  8 16  1  0
  9 17  1  0
M  END
