
     RDKit          3D

 18 19  0  0  0  0  0  0  0  0999 V2000
   -3.1339    1.2289   -0.0181 R   0  0  0  0  0  1  0  0  0  0  0  0
   -2.3638    0.7494   -0.0149 C   0  0  0  0  0  0  0  0  0  0  0  0
   -2.4158   -0.6178   -0.0250 C   0  0  0  0  0  0  0  0  0  0  0  0
   -1.2604   -1.3821   -0.0205 C   0  0  0  0  0  0  0  0  0  0  0  0
   -0.0536   -0.6984   -0.0054 C   0  0  0  0  0  0  0  0  0  0  0  0
    1.1447   -1.4056   -0.0001 C   0  0  0  0  0  0  0  0  0  0  0  0
    2.3485   -0.7291    0.0149 C   0  0  0  0  0  0  0  0  0  0  0  0
    2.4242    0.6452    0.0253 C   0  0  0  0  0  0  0  0  0  0  0  0
    1.2398    1.3512    0.0201 C   0  0  0  0  0  0  0  0  0  0  0  0
    0.0235    0.6785    0.0050 C   0  0  0  0  0  0  0  0  0  0  0  0
   -1.1538    1.4068    0.0000 C   0  0  0  0  0  0  0  0  0  0  0  0
   -3.3704   -1.1275   -0.0367 H   0  0  0  0  0  0  0  0  0  0  0  0
   -1.2830   -2.4643   -0.0283 H   0  0  0  0  0  0  0  0  0  0  0  0
    1.0683   -2.4846   -0.0084 H   0  0  0  0  0  0  0  0  0  0  0  0
    3.2737   -1.2711    0.0190 H   0  0  0  0  0  0  0  0  0  0  0  0
    3.3771    1.1716    0.0371 H   0  0  0  0  0  0  0  0  0  0  0  0
    1.2585    2.4426    0.0280 H   0  0  0  0  0  0  0  0  0  0  0  0
   -1.1236    2.5065    0.0080 H   0  0  0  0  0  0  0  0  0  0  0  0
  1  2  1  0
  2  3  2  0
  3  4  1  0
  4  5  2  0
  5  6  1  0
  6  7  2  0
  7  8  1  0
  8  9  2  0
  9 10  1  0
 10 11  2  0
 11  2  1  0
 10  5  1  0
  3 12  1  0
  4 13  1  0
  6 14  1  0
  7 15  1  0
  8 16  1  0
  9 17  1  0
 11 18  1  0
M  END
