
     RDKit          3D

 13 13  0  0  0  0  0  0  0  0999 V2000
   -1.2120   -2.1277    0.0567 R   0  0  0  0  0  1  0  0  0  0  0  0
   -0.8214   -1.2667    0.0145 C   0  0  0  0  0  0  0  0  0  0  0  0
   -1.6357   -0.1808    0.0858 C   0  0  0  0  0  0  0  0  0  0  0  0
   -1.1115    1.1186    0.0283 C   0  0  0  0  0  0  0  0  0  0  0  0
    0.2770    1.2173   -0.1047 C   0  0  0  0  0  0  0  0  0  0  0  0
    1.0957    0.1185   -0.1764 C   0  0  0  0  0  0  0  0  0  0  0  0
    2.4642    0.1887   -0.3074 O   0  0  0  0  0  0  0  0  0  0  0  0
    0.5286   -1.1610   -0.1149 C   0  0  0  0  0  0  0  0  0  0  0  0
   -2.7156   -0.2377    0.1891 H   0  0  0  0  0  0  0  0  0  0  0  0
   -1.7555    1.9848    0.0846 H   0  0  0  0  0  0  0  0  0  0  0  0
    0.7050    2.2144   -0.1514 H   0  0  0  0  0  0  0  0  0  0  0  0
    3.0087    0.1652    0.5669 H   0  0  0  0  0  0  0  0  0  0  0  0
    1.1725   -2.0336   -0.1712 H   0  0  0  0  0  0  0  0  0  0  0  0
  1  2  1  0
  2  3  2  0
  3  4  1  0
  4  5  2  0
  5  6  1  0
  6  7  1  0
  6  8  2  0
  8  2  1  0
  3  9  1  0
  4 10  1  0
  5 11  1  0
  7 12  1  0
  8 13  1  0
M  END
