
     RDKit          3D

 11 11  0  0  0  0  0  0  0  0999 V2000
   -1.6970   -0.8167   -0.2347 R   0  0  0  0  0  1  0  0  0  0  0  0
   -1.0685   -0.5299    0.2461 C   0  0  0  0  0  0  0  0  0  0  0  0
   -0.6778    0.8825    0.0326 C   0  0  0  0  0  0  0  0  0  0  0  0
    0.2192   -0.2816   -0.3854 C   0  0  0  0  0  0  0  0  0  0  0  0
    1.4745   -0.2866    0.3161 N   0  0  0  0  0  0  0  0  0  0  0  0
   -1.1709   -0.8931    1.3031 H   0  0  0  0  0  0  0  0  0  0  0  0
   -0.4346    1.4530    0.9325 H   0  0  0  0  0  0  0  0  0  0  0  0
   -1.0518    1.4743   -0.8226 H   0  0  0  0  0  0  0  0  0  0  0  0
    0.3179   -0.5005   -1.4704 H   0  0  0  0  0  0  0  0  0  0  0  0
    2.0003    0.5781   -0.0156 H   0  0  0  0  0  0  0  0  0  0  0  0
    2.0887   -1.0795    0.0982 H   0  0  0  0  0  0  0  0  0  0  0  0
  1  2  1  0
  2  3  1  0
  3  4  1  0
  4  5  1  0
  4  2  1  0
  2  6  1  0
  3  7  1  0
  3  8  1  0
  4  9  1  0
  5 10  1  0
  5 11  1  0
M  END
