
     RDKit          3D

 10 10  0  0  0  0  0  0  0  0999 V2000
   -1.5704   -0.6456    1.3315 R   0  0  0  0  0  1  0  0  0  0  0  0
   -0.8817   -0.4083    0.8441 C   0  0  0  0  0  0  0  0  0  0  0  0
   -1.0608    0.1746   -0.3891 C   0  0  0  0  0  0  0  0  0  0  0  0
    0.0508    0.5298   -1.1168 C   0  0  0  0  0  0  0  0  0  0  0  0
    1.3097    0.3099   -0.6282 N   0  0  0  0  0  0  0  0  0  0  0  0
    1.4560   -0.2591    0.5750 C   0  0  0  0  0  0  0  0  0  0  0  0
    0.3840   -0.6060    1.2861 N   0  0  0  0  0  0  0  0  0  0  0  0
   -2.0623    0.3500   -0.7786 H   0  0  0  0  0  0  0  0  0  0  0  0
   -0.0631    0.9871   -2.0838 H   0  0  0  0  0  0  0  0  0  0  0  0
    2.4379   -0.4324    0.9597 H   0  0  0  0  0  0  0  0  0  0  0  0
  1  2  1  0
  2  3  2  0
  3  4  1  0
  4  5  2  0
  5  6  1  0
  6  7  2  0
  7  2  1  0
  3  8  1  0
  4  9  1  0
  6 10  1  0
M  END
