
     RDKit          3D

 17 18  0  0  0  0  0  0  0  0999 V2000
    3.1823   -1.4356    0.1043 R   0  0  0  0  0  1  0  0  0  0  0  0
    2.3680   -0.9298    0.0777 C   0  0  0  0  0  0  0  0  0  0  0  0
    2.4996    0.4423    0.0833 C   0  0  0  0  0  0  0  0  0  0  0  0
    1.3288    1.1663    0.0452 C   0  0  0  0  0  0  0  0  0  0  0  0
    0.0882    0.5347    0.0034 C   0  0  0  0  0  0  0  0  0  0  0  0
   -1.0734    1.2762   -0.0344 C   0  0  0  0  0  0  0  0  0  0  0  0
   -2.3105    0.6418   -0.0761 C   0  0  0  0  0  0  0  0  0  0  0  0
   -2.3349   -0.7366   -0.0781 C   0  0  0  0  0  0  0  0  0  0  0  0
   -1.1655   -1.4602   -0.0400 C   0  0  0  0  0  0  0  0  0  0  0  0
    0.0843   -0.8370    0.0020 C   0  0  0  0  0  0  0  0  0  0  0  0
    1.2209   -1.5837    0.0391 N   0  0  0  0  0  0  0  0  0  0  0  0
    3.4891    0.8553    0.1165 H   0  0  0  0  0  0  0  0  0  0  0  0
    1.4071    2.2454    0.0487 H   0  0  0  0  0  0  0  0  0  0  0  0
   -1.0498    2.3569   -0.0327 H   0  0  0  0  0  0  0  0  0  0  0  0
   -3.2312    1.2215   -0.1061 H   0  0  0  0  0  0  0  0  0  0  0  0
   -3.2938   -1.2347   -0.1104 H   0  0  0  0  0  0  0  0  0  0  0  0
   -1.2089   -2.5228   -0.0424 H   0  0  0  0  0  0  0  0  0  0  0  0
  1  2  1  0
  2  3  2  0
  3  4  1  0
  4  5  2  0
  5  6  1  0
  6  7  2  0
  7  8  1  0
  8  9  2  0
  9 10  1  0
 10 11  2  0
 11  2  1  0
 10  5  1  0
  3 12  1  0
  4 13  1  0
  6 14  1  0
  7 15  1  0
  8 16  1  0
  9 17  1  0
M  END
