
     RDKit          3D

 14 14  0  0  0  0  0  0  0  0999 V2000
   -2.7334   -0.6948    0.1092 R   0  0  0  0  0  1  0  0  0  0  0  0
   -1.8256   -0.4607    0.0735 C   0  0  0  0  0  0  0  0  0  0  0  0
   -1.4707    0.8617    0.1734 C   0  0  0  0  0  0  0  0  0  0  0  0
   -0.1113    1.1990    0.1188 C   0  0  0  0  0  0  0  0  0  0  0  0
    0.8507    0.2066   -0.0336 C   0  0  0  0  0  0  0  0  0  0  0  0
    2.2230    0.5649   -0.0871 N   0  0  0  0  0  0  0  0  0  0  0  0
    0.4305   -1.1032   -0.1282 C   0  0  0  0  0  0  0  0  0  0  0  0
   -0.9145   -1.4674   -0.0770 C   0  0  0  0  0  0  0  0  0  0  0  0
   -2.1769    1.6465    0.2905 H   0  0  0  0  0  0  0  0  0  0  0  0
    0.2246    2.2226    0.1922 H   0  0  0  0  0  0  0  0  0  0  0  0
    2.7971    0.2705   -0.8980 H   0  0  0  0  0  0  0  0  0  0  0  0
    2.6662    1.1171    0.6702 H   0  0  0  0  0  0  0  0  0  0  0  0
    1.2145   -1.8557   -0.2472 H   0  0  0  0  0  0  0  0  0  0  0  0
   -1.1743   -2.5072   -0.1567 H   0  0  0  0  0  0  0  0  0  0  0  0
  1  2  1  0
  2  3  2  0
  3  4  1  0
  4  5  2  0
  5  6  1  0
  5  7  1  0
  7  8  2  0
  8  2  1  0
  3  9  1  0
  4 10  1  0
  6 11  1  0
  6 12  1  0
  7 13  1  0
  8 14  1  0
M  END
