
     RDKit          3D

 14 14  0  0  0  0  0  0  0  0999 V2000
    0.6615    1.9674   -0.0122 R   0  0  0  0  0  1  0  0  0  0  0  0
    0.0723    1.3281   -0.0188 C   0  0  0  0  0  0  0  0  0  0  0  0
   -1.2467    1.5623   -0.0531 N   0  0  0  0  0  0  0  0  0  0  0  0
   -2.1538    0.5674   -0.0631 C   0  0  0  0  0  0  0  0  0  0  0  0
   -1.6575   -0.7204   -0.0361 C   0  0  0  0  0  0  0  0  0  0  0  0
   -0.3032   -0.9963   -0.0004 C   0  0  0  0  0  0  0  0  0  0  0  0
    0.6091    0.0566    0.0090 C   0  0  0  0  0  0  0  0  0  0  0  0
    2.0733   -0.1792    0.0469 C   0  0  0  0  0  0  0  0  0  0  0  0
   -3.2245    0.7310   -0.0907 H   0  0  0  0  0  0  0  0  0  0  0  0
   -2.3640   -1.5246   -0.0435 H   0  0  0  0  0  0  0  0  0  0  0  0
    0.0885   -2.0036    0.0208 H   0  0  0  0  0  0  0  0  0  0  0  0
    2.5289   -0.2504   -0.9562 H   0  0  0  0  0  0  0  0  0  0  0  0
    2.3194   -1.1442    0.5637 H   0  0  0  0  0  0  0  0  0  0  0  0
    2.5967    0.6059    0.6336 H   0  0  0  0  0  0  0  0  0  0  0  0
  1  2  1  0
  2  3  2  0
  3  4  1  0
  4  5  2  0
  5  6  1  0
  6  7  2  0
  7  8  1  0
  7  2  1  0
  4  9  1  0
  5 10  1  0
  6 11  1  0
  8 12  1  0
  8 13  1  0
  8 14  1  0
M  END
