
     RDKit          3D

 10 10  0  0  0  0  0  0  0  0999 V2000
    2.6520    1.0409   -0.1371 R   0  0  0  0  0  1  0  0  0  0  0  0
    1.8870    0.5113    0.0013 C   0  0  0  0  0  0  0  0  0  0  0  0
    1.8639   -0.7074    0.5133 N   0  0  0  0  0  0  0  0  0  0  0  0
    0.5810   -1.1015    0.5368 N   0  0  0  0  0  0  0  0  0  0  0  0
   -0.1578   -0.1024    0.0327 C   0  0  0  0  0  0  0  0  0  0  0  0
   -1.6281   -0.1191   -0.1241 C   0  0  0  0  0  0  0  0  0  0  0  0
    0.6770    0.8567   -0.2793 O   0  0  0  0  0  0  0  0  0  0  0  0
   -1.8392   -0.7205   -1.0540 H   0  0  0  0  0  0  0  0  0  0  0  0
   -1.9592    0.9393   -0.2526 H   0  0  0  0  0  0  0  0  0  0  0  0
   -2.0768   -0.5974    0.7630 H   0  0  0  0  0  0  0  0  0  0  0  0
  1  2  1  0
  2  3  2  0
  3  4  1  0
  4  5  2  0
  5  6  1  0
  5  7  1  0
  7  2  1  0
  6  8  1  0
  6  9  1  0
  6 10  1  0
M  END
