
     RDKit          3D

 14 15  0  0  0  0  0  0  0  0999 V2000
    3.7743    0.0702   -0.1915 R   0  0  0  0  0  1  0  0  0  0  0  0
    2.8887    0.1504   -0.1367 C   0  0  0  0  0  0  0  0  0  0  0  0
    1.9621   -0.7656   -0.1810 N   0  0  0  0  0  0  0  0  0  0  0  0
    0.7042   -0.4551   -0.0833 C   0  0  0  0  0  0  0  0  0  0  0  0
   -0.3831   -1.3480   -0.1168 C   0  0  0  0  0  0  0  0  0  0  0  0
   -1.6561   -0.8954   -0.0038 C   0  0  0  0  0  0  0  0  0  0  0  0
   -1.9745    0.4185    0.1464 C   0  0  0  0  0  0  0  0  0  0  0  0
   -0.9371    1.3199    0.1834 C   0  0  0  0  0  0  0  0  0  0  0  0
    0.3914    0.8721    0.0680 C   0  0  0  0  0  0  0  0  0  0  0  0
    1.9566    1.5825    0.0578 S   0  0  0  0  0  0  0  0  0  0  0  0
   -0.2182   -2.4288   -0.2353 H   0  0  0  0  0  0  0  0  0  0  0  0
   -2.4610   -1.6343   -0.0366 H   0  0  0  0  0  0  0  0  0  0  0  0
   -2.9848    0.7323    0.2315 H   0  0  0  0  0  0  0  0  0  0  0  0
   -1.0626    2.3814    0.2978 H   0  0  0  0  0  0  0  0  0  0  0  0
  1  2  1  0
  2  3  2  0
  3  4  1  0
  4  5  2  0
  5  6  1  0
  6  7  2  0
  7  8  1  0
  8  9  2  0
  9 10  1  0
 10  2  1  0
  9  4  1  0
  5 11  1  0
  6 12  1  0
  7 13  1  0
  8 14  1  0
M  END
