
     RDKit          3D

 19 20  0  0  0  0  0  0  0  0999 V2000
   -4.3529   -0.7417   -0.2925 R   0  0  0  0  0  1  0  0  0  0  0  0
   -3.3998   -0.5367   -0.2315 C   0  0  0  0  0  0  0  0  0  0  0  0
   -2.4597   -1.4610   -0.0902 N   0  0  0  0  0  0  0  0  0  0  0  0
   -1.2531   -0.8207   -0.0403 C   0  0  0  0  0  0  0  0  0  0  0  0
    0.0469   -1.2506    0.0940 C   0  0  0  0  0  0  0  0  0  0  0  0
    1.1058   -0.3671    0.1146 C   0  0  0  0  0  0  0  0  0  0  0  0
    2.4875   -0.8054    0.2560 C   0  0  0  0  0  0  0  0  0  0  0  0
    3.5800    0.0960    0.2779 N   0  0  0  0  0  0  0  0  0  0  0  0
    2.7234   -2.0387    0.3635 O   0  0  0  0  0  0  0  0  0  0  0  0
    0.8132    0.9750   -0.0052 C   0  0  0  0  0  0  0  0  0  0  0  0
   -0.5073    1.4151   -0.1419 C   0  0  0  0  0  0  0  0  0  0  0  0
   -1.5452    0.5174   -0.1598 C   0  0  0  0  0  0  0  0  0  0  0  0
   -2.8934    0.6802   -0.2787 N   0  0  0  0  0  0  0  0  0  0  0  0
    0.2405   -2.2958    0.1845 H   0  0  0  0  0  0  0  0  0  0  0  0
    4.5294   -0.2313   -0.0241 H   0  0  0  0  0  0  0  0  0  0  0  0
    3.4618    1.0967    0.5930 H   0  0  0  0  0  0  0  0  0  0  0  0
    1.6003    1.7310    0.0030 H   0  0  0  0  0  0  0  0  0  0  0  0
   -0.7482    2.4681   -0.2368 H   0  0  0  0  0  0  0  0  0  0  0  0
   -3.4292    1.5693   -0.3853 H   0  0  0  0  0  0  0  0  0  0  0  0
  1  2  1  0
  2  3  2  0
  3  4  1  0
  4  5  2  0
  5  6  1  0
  6  7  1  0
  7  8  1  0
  7  9  2  0
  6 10  2  0
 10 11  1  0
 11 12  2  0
 12 13  1  0
 13  2  1  0
 12  4  1  0
  5 14  1  0
  8 15  1  0
  8 16  1  0
 10 17  1  0
 11 18  1  0
 13 19  1  0
M  END
