
     RDKit          3D

  9  8  0  0  0  0  0  0  0  0999 V2000
   -2.3667   -0.1968    0.0352 R   0  0  0  0  0  1  0  0  0  0  0  0
   -1.5842    0.1823   -0.0697 C   0  0  0  0  0  0  0  0  0  0  0  0
   -0.4683   -0.4603    0.2230 C   0  0  0  0  0  0  0  0  0  0  0  0
    0.8189    0.1939    0.0392 C   0  0  0  0  0  0  0  0  0  0  0  0
    0.8582    1.3562   -0.3934 O   0  0  0  0  0  0  0  0  0  0  0  0
    2.0192   -0.4407    0.3328 O   0  0  0  0  0  0  0  0  0  0  0  0
   -1.5233    1.1846   -0.4414 H   0  0  0  0  0  0  0  0  0  0  0  0
   -0.5635   -1.4760    0.5982 H   0  0  0  0  0  0  0  0  0  0  0  0
    2.8097   -0.3433   -0.3240 H   0  0  0  0  0  0  0  0  0  0  0  0
  1  2  1  0
  2  3  2  3
  3  4  1  0
  4  5  2  0
  4  6  1  0
  2  7  1  0
  3  8  1  0
  6  9  1  0
M  END
