
     RDKit          3D

 11 11  0  0  0  0  0  0  0  0999 V2000
    2.6516   -0.8108   -0.2674 R   0  0  0  0  0  1  0  0  0  0  0  0
    2.0854    0.1150   -0.2606 C   0  0  0  0  0  0  0  0  0  0  0  0
    0.8597   -0.0760    0.0170 C   0  0  0  0  0  0  0  0  0  0  0  0
    0.0356   -1.6639    0.3784 S   0  0  0  0  0  0  0  0  0  0  0  0
   -1.6111   -1.0389    0.0693 C   0  0  0  0  0  0  0  0  0  0  0  0
   -2.6487   -1.6953   -0.1746 O   0  0  0  0  0  0  0  0  0  0  0  0
   -1.5098    0.3488    0.1549 N   0  0  0  0  0  0  0  0  0  0  0  0
   -0.2431    0.8810    0.1307 C   0  0  0  0  0  0  0  0  0  0  0  0
    0.0505    2.1241    0.1981 O   0  0  0  0  0  0  0  0  0  0  0  0
    2.7169    0.8619   -0.4812 H   0  0  0  0  0  0  0  0  0  0  0  0
   -2.3872    0.9541    0.2353 H   0  0  0  0  0  0  0  0  0  0  0  0
  1  2  1  0
  2  3  2  3
  3  4  1  0
  4  5  1  0
  5  6  2  0
  5  7  1  0
  7  8  1  0
  8  9  2  0
  8  3  1  0
  2 10  1  0
  7 11  1  0
M  END
