
     RDKit          3D

  6  5  0  0  0  0  0  0  0  0999 V2000
   -1.6674   -0.1701    0.7691 R   0  0  0  0  0  1  0  0  0  0  0  0
   -0.7495    0.2436    0.1660 C   0  0  0  0  0  0  0  0  0  0  0  0
    0.0988   -0.5612    0.4564 N   0  0  0  0  0  0  0  0  0  0  0  0
    1.3886   -0.6565    0.0922 O   0  0  0  0  0  0  0  0  0  0  0  0
   -1.0851    1.0500   -0.2974 H   0  0  0  0  0  0  0  0  0  0  0  0
    2.0146    0.0942    0.2604 H   0  0  0  0  0  0  0  0  0  0  0  0
  1  2  1  0
  2  3  2  3
  3  4  1  0
  2  5  1  0
  4  6  1  0
M  END
