
     RDKit          3D

  6  5  0  0  0  0  0  0  0  0999 V2000
   -0.7591   -0.1349    0.8561 R   0  0  0  0  0  1  0  0  0  0  0  0
   -0.5144   -0.0006    0.0823 C   0  0  0  0  0  0  0  0  0  0  0  0
    0.9510    0.0118    0.0046 C   0  0  0  0  0  0  0  0  0  0  0  0
    2.1058    0.0401   -0.0634 N   0  0  0  0  0  0  0  0  0  0  0  0
   -0.9133   -0.8676   -0.5211 H   0  0  0  0  0  0  0  0  0  0  0  0
   -0.8700    0.9512   -0.3585 H   0  0  0  0  0  0  0  0  0  0  0  0
  1  2  1  0
  2  3  1  0
  3  4  3  0
  2  5  1  0
  2  6  1  0
M  END
