
     RDKit          3D

  8  7  0  0  0  0  0  0  0  0999 V2000
   -1.1626    0.6773   -0.3833 R   0  0  0  0  0  1  0  0  0  0  0  0
   -0.8065   -0.0115   -0.0081 C   0  0  0  0  0  0  0  0  0  0  0  0
    0.7029    0.0327   -0.0878 C   0  0  0  0  0  0  0  0  0  0  0  0
    1.0990    1.1924    0.5713 F   0  0  0  0  0  0  0  0  0  0  0  0
    1.1865    0.0553   -1.3567 F   0  0  0  0  0  0  0  0  0  0  0  0
    1.2805   -1.0160    0.5943 F   0  0  0  0  0  0  0  0  0  0  0  0
   -1.2263   -0.9571   -0.3979 H   0  0  0  0  0  0  0  0  0  0  0  0
   -1.0736    0.0269    1.0681 H   0  0  0  0  0  0  0  0  0  0  0  0
  1  2  1  0
  2  3  1  0
  3  4  1  0
  3  5  1  0
  3  6  1  0
  2  7  1  0
  2  8  1  0
M  END
