
     RDKit          3D

 15 14  0  0  0  0  0  0  0  0999 V2000
    1.5210   -1.1202    0.6364 R   0  0  0  0  0  1  0  0  0  0  0  0
    1.8667   -0.7399   -0.0641 C   0  0  0  0  0  0  0  0  0  0  0  0
    0.8123    0.1351   -0.6522 C   0  0  0  0  0  0  0  0  0  0  0  0
    1.0374    0.8129   -1.6846 O   0  0  0  0  0  0  0  0  0  0  0  0
   -0.4786    0.2329   -0.0685 N   0  0  0  0  0  0  0  0  0  0  0  0
   -0.7409   -0.5508    1.1264 C   0  0  0  0  0  0  0  0  0  0  0  0
   -1.4811    1.0920   -0.6640 C   0  0  0  0  0  0  0  0  0  0  0  0
    2.7175   -0.1308    0.3269 H   0  0  0  0  0  0  0  0  0  0  0  0
    2.2391   -1.4821   -0.7930 H   0  0  0  0  0  0  0  0  0  0  0  0
   -1.2408   -1.4826    0.8206 H   0  0  0  0  0  0  0  0  0  0  0  0
   -1.3337    0.0540    1.8502 H   0  0  0  0  0  0  0  0  0  0  0  0
    0.2137   -0.8319    1.6170 H   0  0  0  0  0  0  0  0  0  0  0  0
   -2.3491    1.2205   -0.0024 H   0  0  0  0  0  0  0  0  0  0  0  0
   -1.7644    0.6979   -1.6645 H   0  0  0  0  0  0  0  0  0  0  0  0
   -1.0193    2.0929   -0.7843 H   0  0  0  0  0  0  0  0  0  0  0  0
  1  2  1  0
  2  3  1  0
  3  4  2  0
  3  5  1  0
  5  6  1  0
  5  7  1  0
  2  8  1  0
  2  9  1  0
  6 10  1  0
  6 11  1  0
  6 12  1  0
  7 13  1  0
  7 14  1  0
  7 15  1  0
M  END
