
     RDKit          3D

  8  7  0  0  0  0  0  0  0  0999 V2000
   -1.1404   -0.0495    0.9758 R   0  0  0  0  0  1  0  0  0  0  0  0
   -0.9802   -0.1209    0.0468 C   0  0  0  0  0  0  0  0  0  0  0  0
    0.4308    0.2698   -0.1211 C   0  0  0  0  0  0  0  0  0  0  0  0
    0.6688    1.4906   -0.3223 O   0  0  0  0  0  0  0  0  0  0  0  0
    1.4688   -0.6519   -0.0637 O   0  0  0  0  0  0  0  0  0  0  0  0
   -1.1726   -1.1783   -0.2116 H   0  0  0  0  0  0  0  0  0  0  0  0
   -1.6839    0.5618   -0.4443 H   0  0  0  0  0  0  0  0  0  0  0  0
    2.4088   -0.3216    0.1403 H   0  0  0  0  0  0  0  0  0  0  0  0
  1  2  1  0
  2  3  1  0
  3  4  2  0
  3  5  1  0
  2  6  1  0
  2  7  1  0
  5  8  1  0
M  END
