
     RDKit          3D

 10  9  0  0  0  0  0  0  0  0999 V2000
   -1.4913   -0.9637   -0.0099 R   0  0  0  0  0  1  0  0  0  0  0  0
   -1.4686   -0.0964   -0.1298 C   0  0  0  0  0  0  0  0  0  0  0  0
   -0.1043    0.4293    0.0098 C   0  0  0  0  0  0  0  0  0  0  0  0
    0.0685    1.6655   -0.1395 O   0  0  0  0  0  0  0  0  0  0  0  0
    1.0426   -0.3613    0.3030 N   0  0  0  0  0  0  0  0  0  0  0  0
    2.2875    0.1562    0.4250 O   0  0  0  0  0  0  0  0  0  0  0  0
   -2.0811    0.3490    0.6923 H   0  0  0  0  0  0  0  0  0  0  0  0
   -1.9102    0.0645   -1.1295 H   0  0  0  0  0  0  0  0  0  0  0  0
    0.8700   -1.3908    0.4229 H   0  0  0  0  0  0  0  0  0  0  0  0
    2.7869    0.1478   -0.4443 H   0  0  0  0  0  0  0  0  0  0  0  0
  1  2  1  0
  2  3  1  0
  3  4  2  0
  3  5  1  0
  5  6  1  0
  2  7  1  0
  2  8  1  0
  5  9  1  0
  6 10  1  0
M  END
