
     RDKit          3D

  8  7  0  0  0  0  0  0  0  0999 V2000
    0.9116    0.5149   -0.7956 R   0  0  0  0  0  1  0  0  0  0  0  0
    0.7725    0.0352   -0.0182 C   0  0  0  0  0  0  0  0  0  0  0  0
   -0.7287   -0.0012    0.0757 C   0  0  0  0  0  0  0  0  0  0  0  0
    1.2670    0.5625    0.7973 H   0  0  0  0  0  0  0  0  0  0  0  0
    1.1675   -0.9785   -0.1918 H   0  0  0  0  0  0  0  0  0  0  0  0
   -1.0659   -0.8475   -0.5892 H   0  0  0  0  0  0  0  0  0  0  0  0
   -1.2136    0.9078   -0.3551 H   0  0  0  0  0  0  0  0  0  0  0  0
   -1.1104   -0.1932    1.0769 H   0  0  0  0  0  0  0  0  0  0  0  0
  1  2  1  0
  2  3  1  0
  2  4  1  0
  2  5  1  0
  3  6  1  0
  3  7  1  0
  3  8  1  0
M  END
