
     RDKit          3D

 18 18  0  0  0  0  0  0  0  0999 V2000
   -0.4662    1.8544   -0.5812 R   0  0  0  0  0  1  0  0  0  0  0  0
   -0.3114    1.5059    0.5707 C   0  0  0  0  0  0  0  0  0  0  0  0
   -0.1359    0.1145    0.2273 C   0  0  0  0  0  0  0  0  0  0  0  0
   -1.1619   -0.7465   -0.1283 C   0  0  0  0  0  0  0  0  0  0  0  0
   -2.6180   -0.3836   -0.2123 C   0  0  0  0  0  0  0  0  0  0  0  0
   -0.6218   -1.9520   -0.3779 N   0  0  0  0  0  0  0  0  0  0  0  0
    0.6781   -1.8518   -0.1883 N   0  0  0  0  0  0  0  0  0  0  0  0
    1.0099   -0.5987    0.1835 C   0  0  0  0  0  0  0  0  0  0  0  0
    2.3708   -0.1750    0.4694 C   0  0  0  0  0  0  0  0  0  0  0  0
    3.3485   -0.9624    0.3884 O   0  0  0  0  0  0  0  0  0  0  0  0
    2.6611    1.1314    0.8489 O   0  0  0  0  0  0  0  0  0  0  0  0
    0.5440    2.1320    0.6580 H   0  0  0  0  0  0  0  0  0  0  0  0
   -1.2851    1.8582    0.8209 H   0  0  0  0  0  0  0  0  0  0  0  0
   -3.1655   -1.2144    0.2469 H   0  0  0  0  0  0  0  0  0  0  0  0
   -2.8029    0.5333    0.4154 H   0  0  0  0  0  0  0  0  0  0  0  0
   -2.9107   -0.1431   -1.2403 H   0  0  0  0  0  0  0  0  0  0  0  0
    1.3147   -2.6810   -0.3259 H   0  0  0  0  0  0  0  0  0  0  0  0
    3.5523    1.5787    0.7208 H   0  0  0  0  0  0  0  0  0  0  0  0
  1  2  1  0
  2  3  1  0
  3  4  1  0
  4  5  1  0
  4  6  2  0
  6  7  1  0
  7  8  1  0
  8  9  1  0
  9 10  2  0
  9 11  1  0
  8  3  2  0
  2 12  1  0
  2 13  1  0
  5 14  1  0
  5 15  1  0
  5 16  1  0
  7 17  1  0
 11 18  1  0
M  END
