
     RDKit          3D

 15 15  0  0  0  0  0  0  0  0999 V2000
   -2.5199   -0.3378    0.7500 R   0  0  0  0  0  1  0  0  0  0  0  0
   -2.2453   -0.0380   -0.0489 C   0  0  0  0  0  0  0  0  0  0  0  0
   -0.7664   -0.0435   -0.0269 C   0  0  0  0  0  0  0  0  0  0  0  0
   -0.1016   -1.1781   -0.4409 C   0  0  0  0  0  0  0  0  0  0  0  0
    1.2775   -1.1597   -0.4115 C   0  0  0  0  0  0  0  0  0  0  0  0
    1.9550   -0.0261    0.0240 C   0  0  0  0  0  0  0  0  0  0  0  0
    3.7176    0.0121    0.0670 Cl  0  0  0  0  0  0  0  0  0  0  0  0
    1.2745    1.0966    0.4333 C   0  0  0  0  0  0  0  0  0  0  0  0
    2.1782    2.5073    0.9762 Cl  0  0  0  0  0  0  0  0  0  0  0  0
   -0.1045    1.0915    0.4089 C   0  0  0  0  0  0  0  0  0  0  0  0
   -2.6004   -0.7820   -0.7604 H   0  0  0  0  0  0  0  0  0  0  0  0
   -2.6659    0.9786   -0.1924 H   0  0  0  0  0  0  0  0  0  0  0  0
   -0.6116   -2.0677   -0.7823 H   0  0  0  0  0  0  0  0  0  0  0  0
    1.8407   -2.0318   -0.7289 H   0  0  0  0  0  0  0  0  0  0  0  0
   -0.6280    1.9786    0.7326 H   0  0  0  0  0  0  0  0  0  0  0  0
  1  2  1  0
  2  3  1  0
  3  4  2  0
  4  5  1  0
  5  6  2  0
  6  7  1  0
  6  8  1  0
  8  9  1  0
  8 10  2  0
 10  3  1  0
  2 11  1  0
  2 12  1  0
  4 13  1  0
  5 14  1  0
 10 15  1  0
M  END
