
     RDKit          3D

 15 15  0  0  0  0  0  0  0  0999 V2000
   -2.4849   -0.0693   -0.8602 R   0  0  0  0  0  1  0  0  0  0  0  0
   -2.1859   -0.0014   -0.0025 C   0  0  0  0  0  0  0  0  0  0  0  0
   -0.7098   -0.0014   -0.0023 C   0  0  0  0  0  0  0  0  0  0  0  0
   -0.0527   -1.2155    0.0938 C   0  0  0  0  0  0  0  0  0  0  0  0
    1.3213   -1.1887    0.0918 C   0  0  0  0  0  0  0  0  0  0  0  0
    2.0516   -0.0173   -0.0009 C   0  0  0  0  0  0  0  0  0  0  0  0
    1.3886    1.1928   -0.0967 C   0  0  0  0  0  0  0  0  0  0  0  0
    0.0056    1.1775   -0.0956 C   0  0  0  0  0  0  0  0  0  0  0  0
   -2.6035    1.0077    0.2744 H   0  0  0  0  0  0  0  0  0  0  0  0
   -2.6100   -0.8134    0.6040 H   0  0  0  0  0  0  0  0  0  0  0  0
   -0.6174   -2.1479    0.1676 H   0  0  0  0  0  0  0  0  0  0  0  0
    1.8827   -2.1168    0.1654 H   0  0  0  0  0  0  0  0  0  0  0  0
    3.1478   -0.0758    0.0038 H   0  0  0  0  0  0  0  0  0  0  0  0
    1.9626    2.1209   -0.1702 H   0  0  0  0  0  0  0  0  0  0  0  0
   -0.4958    2.1486   -0.1726 H   0  0  0  0  0  0  0  0  0  0  0  0
  1  2  1  0
  2  3  1  0
  3  4  2  0
  4  5  1  0
  5  6  2  0
  6  7  1  0
  7  8  2  0
  8  3  1  0
  2  9  1  0
  2 10  1  0
  4 11  1  0
  5 12  1  0
  6 13  1  0
  7 14  1  0
  8 15  1  0
M  END
