
     RDKit          3D

 15 15  0  0  0  0  0  0  0  0999 V2000
    2.4308    0.2304    0.8924 R   0  0  0  0  0  1  0  0  0  0  0  0
    2.1321    0.4277    0.0344 C   0  0  0  0  0  0  0  0  0  0  0  0
    0.6673    0.1622    0.0046 C   0  0  0  0  0  0  0  0  0  0  0  0
   -0.2066    1.2157    0.0806 C   0  0  0  0  0  0  0  0  0  0  0  0
   -1.5824    0.9476    0.0564 C   0  0  0  0  0  0  0  0  0  0  0  0
   -2.0940   -0.3285   -0.0405 C   0  0  0  0  0  0  0  0  0  0  0  0
   -1.1998   -1.3721   -0.1168 C   0  0  0  0  0  0  0  0  0  0  0  0
    0.1763   -1.1202   -0.0931 C   0  0  0  0  0  0  0  0  0  0  0  0
    1.3327   -2.4068   -0.1902 Cl  0  0  0  0  0  0  0  0  0  0  0  0
    2.4140    1.4738   -0.0833 H   0  0  0  0  0  0  0  0  0  0  0  0
    2.7182   -0.2937   -0.5681 H   0  0  0  0  0  0  0  0  0  0  0  0
    0.1637    2.2442    0.1582 H   0  0  0  0  0  0  0  0  0  0  0  0
   -2.2549    1.7681    0.1223 H   0  0  0  0  0  0  0  0  0  0  0  0
   -3.1551   -0.5416   -0.0605 H   0  0  0  0  0  0  0  0  0  0  0  0
   -1.5422   -2.4067   -0.1964 H   0  0  0  0  0  0  0  0  0  0  0  0
  1  2  1  0
  2  3  1  0
  3  4  2  0
  4  5  1  0
  5  6  2  0
  6  7  1  0
  7  8  2  0
  8  9  1  0
  8  3  1  0
  2 10  1  0
  2 11  1  0
  4 12  1  0
  5 13  1  0
  6 14  1  0
  7 15  1  0
M  END
