
     RDKit          3D

 12 12  0  0  0  0  0  0  0  0999 V2000
    2.0677    0.3373   -0.2078 R   0  0  0  0  0  1  0  0  0  0  0  0
    1.4075    0.0949    0.3713 C   0  0  0  0  0  0  0  0  0  0  0  0
    0.2208   -0.1972   -0.4963 C   0  0  0  0  0  0  0  0  0  0  0  0
   -1.0166   -0.6294    0.2950 C   0  0  0  0  0  0  0  0  0  0  0  0
   -0.9877    0.6507   -0.4406 C   0  0  0  0  0  0  0  0  0  0  0  0
    1.8100   -0.7850    0.8955 H   0  0  0  0  0  0  0  0  0  0  0  0
    1.2993    0.9867    0.9973 H   0  0  0  0  0  0  0  0  0  0  0  0
    0.3882   -0.7472   -1.4458 H   0  0  0  0  0  0  0  0  0  0  0  0
   -0.9977   -0.5747    1.3871 H   0  0  0  0  0  0  0  0  0  0  0  0
   -1.6247   -1.4655   -0.1037 H   0  0  0  0  0  0  0  0  0  0  0  0
   -1.6439    0.6956   -1.3347 H   0  0  0  0  0  0  0  0  0  0  0  0
   -0.9230    1.6340    0.0828 H   0  0  0  0  0  0  0  0  0  0  0  0
  1  2  1  0
  2  3  1  0
  3  4  1  0
  4  5  1  0
  5  3  1  0
  2  6  1  0
  2  7  1  0
  3  8  1  0
  4  9  1  0
  4 10  1  0
  5 11  1  0
  5 12  1  0
M  END
