
     RDKit          3D

 19 19  0  0  0  0  0  0  0  0999 V2000
   -0.7347   -2.4576    0.8720 R   0  0  0  0  0  1  0  0  0  0  0  0
   -0.9936   -2.1689    0.0393 C   0  0  0  0  0  0  0  0  0  0  0  0
   -0.8699   -0.6747    0.0571 C   0  0  0  0  0  0  0  0  0  0  0  0
   -1.9845    0.1245    0.1674 C   0  0  0  0  0  0  0  0  0  0  0  0
   -1.9077    1.5170    0.1887 C   0  0  0  0  0  0  0  0  0  0  0  0
   -0.6581    2.0783    0.0952 C   0  0  0  0  0  0  0  0  0  0  0  0
    0.4598    1.2886   -0.0154 C   0  0  0  0  0  0  0  0  0  0  0  0
    0.3808   -0.1082   -0.0370 C   0  0  0  0  0  0  0  0  0  0  0  0
    1.5205   -0.9025   -0.1506 O   0  0  0  0  0  0  0  0  0  0  0  0
    2.7824   -0.2290   -0.2456 C   0  0  0  0  0  0  0  0  0  0  0  0
   -2.0548   -2.4678   -0.0833 H   0  0  0  0  0  0  0  0  0  0  0  0
   -0.3224   -2.6165   -0.7227 H   0  0  0  0  0  0  0  0  0  0  0  0
   -2.9693   -0.2984    0.2444 H   0  0  0  0  0  0  0  0  0  0  0  0
   -2.8161    2.1222    0.2751 H   0  0  0  0  0  0  0  0  0  0  0  0
   -0.5760    3.1477    0.1084 H   0  0  0  0  0  0  0  0  0  0  0  0
    1.4534    1.7145   -0.0938 H   0  0  0  0  0  0  0  0  0  0  0  0
    2.8691    0.4487    0.6377 H   0  0  0  0  0  0  0  0  0  0  0  0
    2.7932    0.4242   -1.1409 H   0  0  0  0  0  0  0  0  0  0  0  0
    3.6279   -0.9421   -0.1962 H   0  0  0  0  0  0  0  0  0  0  0  0
  1  2  1  0
  2  3  1  0
  3  4  2  0
  4  5  1  0
  5  6  2  0
  6  7  1  0
  7  8  2  0
  8  9  1  0
  9 10  1  0
  8  3  1  0
  2 11  1  0
  2 12  1  0
  4 13  1  0
  5 14  1  0
  6 15  1  0
  7 16  1  0
 10 17  1  0
 10 18  1  0
 10 19  1  0
M  END
