
     RDKit          3D

 14 14  0  0  0  0  0  0  0  0999 V2000
   -2.2160    0.3659   -0.9857 R   0  0  0  0  0  1  0  0  0  0  0  0
   -2.0510    0.3203   -0.1329 C   0  0  0  0  0  0  0  0  0  0  0  0
   -0.5991    0.0112   -0.0400 C   0  0  0  0  0  0  0  0  0  0  0  0
    0.3616    0.9986    0.0202 C   0  0  0  0  0  0  0  0  0  0  0  0
    1.7028    0.6328    0.1060 C   0  0  0  0  0  0  0  0  0  0  0  0
    2.1077   -0.6868    0.1331 C   0  0  0  0  0  0  0  0  0  0  0  0
    1.1383   -1.6186    0.0723 N   0  0  0  0  0  0  0  0  0  0  0  0
   -0.1768   -1.2992   -0.0118 C   0  0  0  0  0  0  0  0  0  0  0  0
   -2.2577    1.3272    0.2804 H   0  0  0  0  0  0  0  0  0  0  0  0
   -2.6855   -0.4696    0.2683 H   0  0  0  0  0  0  0  0  0  0  0  0
    0.0374    2.0256   -0.0016 H   0  0  0  0  0  0  0  0  0  0  0  0
    2.4338    1.4184    0.1518 H   0  0  0  0  0  0  0  0  0  0  0  0
    3.1595   -0.9587    0.2004 H   0  0  0  0  0  0  0  0  0  0  0  0
   -0.9550   -2.0672   -0.0606 H   0  0  0  0  0  0  0  0  0  0  0  0
  1  2  1  0
  2  3  1  0
  3  4  2  0
  4  5  1  0
  5  6  2  0
  6  7  1  0
  7  8  2  0
  8  3  1  0
  2  9  1  0
  2 10  1  0
  4 11  1  0
  5 12  1  0
  6 13  1  0
  8 14  1  0
M  END
