
     RDKit          3D

 19 19  0  0  0  0  0  0  0  0999 V2000
   -2.3799   -0.2633    1.7865 R   0  0  0  0  0  1  0  0  0  0  0  0
   -2.2724   -0.6581    1.0124 C   0  0  0  0  0  0  0  0  0  0  0  0
   -1.2672    0.0541    0.1977 C   0  0  0  0  0  0  0  0  0  0  0  0
   -1.6594    1.0694   -0.6508 C   0  0  0  0  0  0  0  0  0  0  0  0
   -0.6679    1.6910   -1.3814 C   0  0  0  0  0  0  0  0  0  0  0  0
    0.6607    1.3265   -1.2803 C   0  0  0  0  0  0  0  0  0  0  0  0
    1.0547    0.3120   -0.4328 C   0  0  0  0  0  0  0  0  0  0  0  0
    2.3943   -0.0400   -0.3448 O   0  0  0  0  0  0  0  0  0  0  0  0
    2.7276   -1.0888    0.5439 C   0  0  0  0  0  0  0  0  0  0  0  0
    0.0689   -0.3141    0.3008 C   0  0  0  0  0  0  0  0  0  0  0  0
   -3.2401   -0.7385    0.4659 H   0  0  0  0  0  0  0  0  0  0  0  0
   -1.9175   -1.6918    1.2357 H   0  0  0  0  0  0  0  0  0  0  0  0
   -2.7048    1.3731   -0.7456 H   0  0  0  0  0  0  0  0  0  0  0  0
   -0.9538    2.4871   -2.0505 H   0  0  0  0  0  0  0  0  0  0  0  0
    1.4475    1.8227   -1.8627 H   0  0  0  0  0  0  0  0  0  0  0  0
    2.4288   -0.8784    1.5835 H   0  0  0  0  0  0  0  0  0  0  0  0
    3.7889   -1.3865    0.4360 H   0  0  0  0  0  0  0  0  0  0  0  0
    2.0949   -1.9687    0.2259 H   0  0  0  0  0  0  0  0  0  0  0  0
    0.3968   -1.1077    0.9605 H   0  0  0  0  0  0  0  0  0  0  0  0
  1  2  1  0
  2  3  1  0
  3  4  2  0
  4  5  1  0
  5  6  2  0
  6  7  1  0
  7  8  1  0
  8  9  1  0
  7 10  2  0
 10  3  1  0
  2 11  1  0
  2 12  1  0
  4 13  1  0
  5 14  1  0
  6 15  1  0
  9 16  1  0
  9 17  1  0
  9 18  1  0
 10 19  1  0
M  END
