
     RDKit          3D

 12 12  0  0  0  0  0  0  0  0999 V2000
   -2.2385   -0.3992   -0.8132 R   0  0  0  0  0  1  0  0  0  0  0  0
   -2.0419   -0.2778   -0.0228 C   0  0  0  0  0  0  0  0  0  0  0  0
   -0.5431   -0.2480    0.1521 C   0  0  0  0  0  0  0  0  0  0  0  0
    0.2910    0.8169    0.0893 C   0  0  0  0  0  0  0  0  0  0  0  0
    1.5975    0.6153    0.2765 C   0  0  0  0  0  0  0  0  0  0  0  0
    2.0026   -0.6698    0.5215 C   0  0  0  0  0  0  0  0  0  0  0  0
    0.5408   -1.5433    0.4799 S   0  0  0  0  0  0  0  0  0  0  0  0
   -2.4166   -1.1407    0.6030 H   0  0  0  0  0  0  0  0  0  0  0  0
   -2.4388    0.6723    0.3918 H   0  0  0  0  0  0  0  0  0  0  0  0
   -0.1345    1.8214   -0.1152 H   0  0  0  0  0  0  0  0  0  0  0  0
    2.3673    1.4128    0.2468 H   0  0  0  0  0  0  0  0  0  0  0  0
    3.0141   -1.0599    0.7022 H   0  0  0  0  0  0  0  0  0  0  0  0
  1  2  1  0
  2  3  1  0
  3  4  2  0
  4  5  1  0
  5  6  2  0
  6  7  1  0
  7  3  1  0
  2  8  1  0
  2  9  1  0
  4 10  1  0
  5 11  1  0
  6 12  1  0
M  END
