
     RDKit          3D

 12 12  0  0  0  0  0  0  0  0999 V2000
    2.0145   -0.6207    0.9712 R   0  0  0  0  0  1  0  0  0  0  0  0
    1.8883   -0.2296    0.1563 C   0  0  0  0  0  0  0  0  0  0  0  0
    0.4173   -0.1460   -0.0136 C   0  0  0  0  0  0  0  0  0  0  0  0
   -0.4346    0.8726    0.3532 C   0  0  0  0  0  0  0  0  0  0  0  0
   -1.6718    0.5078    0.0018 N   0  0  0  0  0  0  0  0  0  0  0  0
   -1.5940   -0.7019   -0.5671 C   0  0  0  0  0  0  0  0  0  0  0  0
   -0.3098   -1.1205   -0.5845 N   0  0  0  0  0  0  0  0  0  0  0  0
    2.3542    0.7657    0.2863 H   0  0  0  0  0  0  0  0  0  0  0  0
    2.3751   -0.8512   -0.6058 H   0  0  0  0  0  0  0  0  0  0  0  0
   -0.1082    1.8003    0.8446 H   0  0  0  0  0  0  0  0  0  0  0  0
   -2.5445    1.0416    0.1332 H   0  0  0  0  0  0  0  0  0  0  0  0
   -2.3864   -1.3180   -0.9755 H   0  0  0  0  0  0  0  0  0  0  0  0
  1  2  1  0
  2  3  1  0
  3  4  2  0
  4  5  1  0
  5  6  1  0
  6  7  2  0
  7  3  1  0
  2  8  1  0
  2  9  1  0
  4 10  1  0
  5 11  1  0
  6 12  1  0
M  END
