
     RDKit          3D

 17 16  0  0  0  0  0  0  0  0999 V2000
    1.5004   -1.5294    0.4827 R   0  0  0  0  0  1  0  0  0  0  0  0
    1.8389   -0.8893    0.0508 C   0  0  0  0  0  0  0  0  0  0  0  0
    0.9661    0.3394    0.1378 C   0  0  0  0  0  0  0  0  0  0  0  0
   -0.4069    0.1167   -0.4139 C   0  0  0  0  0  0  0  0  0  0  0  0
   -1.1649   -0.9727    0.2997 C   0  0  0  0  0  0  0  0  0  0  0  0
   -1.1904    1.4022   -0.2336 C   0  0  0  0  0  0  0  0  0  0  0  0
    2.0059   -1.1982   -1.0006 H   0  0  0  0  0  0  0  0  0  0  0  0
    2.8405   -0.6509    0.4628 H   0  0  0  0  0  0  0  0  0  0  0  0
    1.4515    1.1220   -0.4810 H   0  0  0  0  0  0  0  0  0  0  0  0
    0.9411    0.7192    1.1783 H   0  0  0  0  0  0  0  0  0  0  0  0
   -0.3840   -0.1073   -1.4841 H   0  0  0  0  0  0  0  0  0  0  0  0
   -2.2442   -0.7320    0.2057 H   0  0  0  0  0  0  0  0  0  0  0  0
   -0.9886   -1.9704   -0.0998 H   0  0  0  0  0  0  0  0  0  0  0  0
   -0.9225   -0.8874    1.3971 H   0  0  0  0  0  0  0  0  0  0  0  0
   -2.1205    1.2489    0.3629 H   0  0  0  0  0  0  0  0  0  0  0  0
   -1.5164    1.8215   -1.2058 H   0  0  0  0  0  0  0  0  0  0  0  0
   -0.6059    2.1679    0.3411 H   0  0  0  0  0  0  0  0  0  0  0  0
  1  2  1  0
  2  3  1  0
  3  4  1  0
  4  5  1  0
  4  6  1  0
  2  7  1  0
  2  8  1  0
  3  9  1  0
  3 10  1  0
  4 11  1  0
  5 12  1  0
  5 13  1  0
  5 14  1  0
  6 15  1  0
  6 16  1  0
  6 17  1  0
M  END
