
     RDKit          3D

 20 19  0  0  0  0  0  0  0  0999 V2000
   -3.2017    0.1423    0.6787 R   0  0  0  0  0  1  0  0  0  0  0  0
   -2.9180   -0.1544   -0.1393 C   0  0  0  0  0  0  0  0  0  0  0  0
   -1.4983    0.2992   -0.2656 C   0  0  0  0  0  0  0  0  0  0  0  0
   -0.6592   -0.2871    0.8381 C   0  0  0  0  0  0  0  0  0  0  0  0
    0.7868    0.1454    0.7501 C   0  0  0  0  0  0  0  0  0  0  0  0
    1.4263   -0.2749   -0.5468 C   0  0  0  0  0  0  0  0  0  0  0  0
    2.8699    0.2198   -0.5052 C   0  0  0  0  0  0  0  0  0  0  0  0
   -3.0326   -1.2455   -0.0788 H   0  0  0  0  0  0  0  0  0  0  0  0
   -3.6094    0.3338   -0.8221 H   0  0  0  0  0  0  0  0  0  0  0  0
   -1.1288    0.0212   -1.2709 H   0  0  0  0  0  0  0  0  0  0  0  0
   -1.4990    1.4140   -0.2388 H   0  0  0  0  0  0  0  0  0  0  0  0
   -1.0539    0.1016    1.8018 H   0  0  0  0  0  0  0  0  0  0  0  0
   -0.7693   -1.3795    0.8107 H   0  0  0  0  0  0  0  0  0  0  0  0
    1.3488   -0.3529    1.5658 H   0  0  0  0  0  0  0  0  0  0  0  0
    0.8946    1.2182    0.8848 H   0  0  0  0  0  0  0  0  0  0  0  0
    0.9023    0.1032   -1.4418 H   0  0  0  0  0  0  0  0  0  0  0  0
    1.4784   -1.3824   -0.6467 H   0  0  0  0  0  0  0  0  0  0  0  0
    3.5646   -0.5225   -0.9364 H   0  0  0  0  0  0  0  0  0  0  0  0
    2.9121    1.1980   -1.0008 H   0  0  0  0  0  0  0  0  0  0  0  0
    3.1864    0.4024    0.5634 H   0  0  0  0  0  0  0  0  0  0  0  0
  1  2  1  0
  2  3  1  0
  3  4  1  0
  4  5  1  0
  5  6  1  0
  6  7  1  0
  2  8  1  0
  2  9  1  0
  3 10  1  0
  3 11  1  0
  4 12  1  0
  4 13  1  0
  5 14  1  0
  5 15  1  0
  6 16  1  0
  6 17  1  0
  7 18  1  0
  7 19  1  0
  7 20  1  0
M  END
