
     RDKit          3D

 17 16  0  0  0  0  0  0  0  0999 V2000
   -3.1021   -0.5913   -0.0664 R   0  0  0  0  0  1  0  0  0  0  0  0
   -2.4000    0.3860   -0.2807 C   0  0  0  0  0  0  0  0  0  0  0  0
   -1.2108   -0.4530    0.0096 C   0  0  0  0  0  0  0  0  0  0  0  0
   -0.0026    0.3851   -0.1402 C   0  0  0  0  0  0  0  0  0  0  0  0
    1.2263   -0.4828    0.1600 C   0  0  0  0  0  0  0  0  0  0  0  0
    2.4991    0.3209    0.0228 C   0  0  0  0  0  0  0  0  0  0  0  0
   -2.8076    0.3761   -1.2620 H   0  0  0  0  0  0  0  0  0  0  0  0
   -2.9150    0.8393    0.5381 H   0  0  0  0  0  0  0  0  0  0  0  0
   -1.2736   -0.7493    1.0977 H   0  0  0  0  0  0  0  0  0  0  0  0
   -1.1037   -1.3501   -0.6182 H   0  0  0  0  0  0  0  0  0  0  0  0
    0.1059    0.9056   -1.1005 H   0  0  0  0  0  0  0  0  0  0  0  0
   -0.0101    1.1497    0.6905 H   0  0  0  0  0  0  0  0  0  0  0  0
    1.1812   -0.9157    1.1578 H   0  0  0  0  0  0  0  0  0  0  0  0
    1.2384   -1.2859   -0.5972 H   0  0  0  0  0  0  0  0  0  0  0  0
    2.9952    0.1103   -0.9652 H   0  0  0  0  0  0  0  0  0  0  0  0
    3.2279   -0.0451    0.7861 H   0  0  0  0  0  0  0  0  0  0  0  0
    2.3513    1.4002    0.1016 H   0  0  0  0  0  0  0  0  0  0  0  0
  1  2  1  0
  2  3  1  0
  3  4  1  0
  4  5  1  0
  5  6  1  0
  2  7  1  0
  2  8  1  0
  3  9  1  0
  3 10  1  0
  4 11  1  0
  4 12  1  0
  5 13  1  0
  5 14  1  0
  6 15  1  0
  6 16  1  0
  6 17  1  0
M  END
