
     RDKit          3D

 18 18  0  0  0  0  0  0  0  0999 V2000
    2.0859   -1.1841    0.9234 R   0  0  0  0  0  1  0  0  0  0  0  0
    2.3028   -0.3606    0.9292 C   0  0  0  0  0  0  0  0  0  0  0  0
    1.6922    0.2851   -0.3155 C   0  0  0  0  0  0  0  0  0  0  0  0
    0.2154    0.1456   -0.2897 C   0  0  0  0  0  0  0  0  0  0  0  0
   -0.4330   -0.9410   -0.8467 C   0  0  0  0  0  0  0  0  0  0  0  0
   -1.8099   -1.0324   -0.8012 C   0  0  0  0  0  0  0  0  0  0  0  0
   -2.5980   -0.0671   -0.2112 C   0  0  0  0  0  0  0  0  0  0  0  0
   -1.9519    1.0173    0.3448 C   0  0  0  0  0  0  0  0  0  0  0  0
   -0.5737    1.1120    0.3011 C   0  0  0  0  0  0  0  0  0  0  0  0
    2.0008    0.1620    1.8410 H   0  0  0  0  0  0  0  0  0  0  0  0
    3.3970   -0.3096    0.7914 H   0  0  0  0  0  0  0  0  0  0  0  0
    1.9878    1.3626   -0.3031 H   0  0  0  0  0  0  0  0  0  0  0  0
    2.1624   -0.2003   -1.1842 H   0  0  0  0  0  0  0  0  0  0  0  0
    0.1585   -1.7072   -1.3128 H   0  0  0  0  0  0  0  0  0  0  0  0
   -2.3493   -1.8837   -1.2355 H   0  0  0  0  0  0  0  0  0  0  0  0
   -3.6810   -0.1580   -0.1859 H   0  0  0  0  0  0  0  0  0  0  0  0
   -2.5493    1.7882    0.8138 H   0  0  0  0  0  0  0  0  0  0  0  0
   -0.0567    1.9711    0.7412 H   0  0  0  0  0  0  0  0  0  0  0  0
  1  2  1  0
  2  3  1  0
  3  4  1  0
  4  5  2  0
  5  6  1  0
  6  7  2  0
  7  8  1  0
  8  9  2  0
  9  4  1  0
  2 10  1  0
  2 11  1  0
  3 12  1  0
  3 13  1  0
  5 14  1  0
  6 15  1  0
  7 16  1  0
  8 17  1  0
  9 18  1  0
M  END
