
     RDKit          3D

 11 10  0  0  0  0  0  0  0  0999 V2000
    1.0327    0.9889   -0.7001 R   0  0  0  0  0  1  0  0  0  0  0  0
    1.2058    0.3458   -0.2084 C   0  0  0  0  0  0  0  0  0  0  0  0
    0.0060   -0.5899   -0.1996 C   0  0  0  0  0  0  0  0  0  0  0  0
   -1.2193    0.1320    0.3211 C   0  0  0  0  0  0  0  0  0  0  0  0
    1.3753    0.6930    0.8281 H   0  0  0  0  0  0  0  0  0  0  0  0
    2.1127   -0.1385   -0.5606 H   0  0  0  0  0  0  0  0  0  0  0  0
    0.2294   -1.4995    0.4051 H   0  0  0  0  0  0  0  0  0  0  0  0
   -0.1887   -0.9304   -1.2339 H   0  0  0  0  0  0  0  0  0  0  0  0
   -1.6644   -0.4021    1.2043 H   0  0  0  0  0  0  0  0  0  0  0  0
   -1.9757    0.2489   -0.4920 H   0  0  0  0  0  0  0  0  0  0  0  0
   -0.9138    1.1518    0.6360 H   0  0  0  0  0  0  0  0  0  0  0  0
  1  2  1  0
  2  3  1  0
  3  4  1  0
  2  5  1  0
  2  6  1  0
  3  7  1  0
  3  8  1  0
  4  9  1  0
  4 10  1  0
  4 11  1  0
M  END
