
     RDKit          3D

 22 21  0  0  0  0  0  0  0  0999 V2000
    0.5628    3.2461    0.0782 R   0  0  0  0  0  1  0  0  0  0  0  0
    0.1167    2.5066    0.3978 C   0  0  0  0  0  0  0  0  0  0  0  0
    0.5900    1.3057   -0.3714 C   0  0  0  0  0  0  0  0  0  0  0  0
   -0.0082    0.0702    0.0203 N   0  0  0  0  0  0  0  0  0  0  0  0
   -1.4052   -0.0208   -0.2871 C   0  0  0  0  0  0  0  0  0  0  0  0
   -1.9953   -1.3525    0.0347 C   0  0  0  0  0  0  0  0  0  0  0  0
    0.7491   -1.1002   -0.2533 C   0  0  0  0  0  0  0  0  0  0  0  0
    2.0130   -1.2619    0.5113 C   0  0  0  0  0  0  0  0  0  0  0  0
    0.3535    2.5191    1.4599 H   0  0  0  0  0  0  0  0  0  0  0  0
   -0.9761    2.7233    0.2049 H   0  0  0  0  0  0  0  0  0  0  0  0
    1.6748    1.2650   -0.4074 H   0  0  0  0  0  0  0  0  0  0  0  0
    0.2621    1.4867   -1.4367 H   0  0  0  0  0  0  0  0  0  0  0  0
   -1.9554    0.7443    0.3570 H   0  0  0  0  0  0  0  0  0  0  0  0
   -1.5275    0.1963   -1.3700 H   0  0  0  0  0  0  0  0  0  0  0  0
   -3.1247   -1.2353    0.0261 H   0  0  0  0  0  0  0  0  0  0  0  0
   -1.7553   -1.6799    1.0804 H   0  0  0  0  0  0  0  0  0  0  0  0
   -1.7712   -2.1503   -0.7139 H   0  0  0  0  0  0  0  0  0  0  0  0
    0.9961   -1.1089   -1.3434 H   0  0  0  0  0  0  0  0  0  0  0  0
    0.1220   -2.0156   -0.0953 H   0  0  0  0  0  0  0  0  0  0  0  0
    2.9098   -1.0327   -0.1338 H   0  0  0  0  0  0  0  0  0  0  0  0
    2.1173   -2.3582    0.7673 H   0  0  0  0  0  0  0  0  0  0  0  0
    2.0517   -0.7469    1.4744 H   0  0  0  0  0  0  0  0  0  0  0  0
  1  2  1  0
  2  3  1  0
  3  4  1  0
  4  5  1  0
  5  6  1  0
  4  7  1  0
  7  8  1  0
  2  9  1  0
  2 10  1  0
  3 11  1  0
  3 12  1  0
  5 13  1  0
  5 14  1  0
  6 15  1  0
  6 16  1  0
  6 17  1  0
  7 18  1  0
  7 19  1  0
  8 20  1  0
  8 21  1  0
  8 22  1  0
M  END
