
     RDKit          3D

 20 20  0  0  0  0  0  0  0  0999 V2000
    2.6703   -0.9776   -0.2394 R   0  0  0  0  0  1  0  0  0  0  0  0
    2.5638   -0.2760    0.2686 C   0  0  0  0  0  0  0  0  0  0  0  0
    1.4442    0.4999   -0.3796 C   0  0  0  0  0  0  0  0  0  0  0  0
    0.2647   -0.3760   -0.3756 N   0  0  0  0  0  0  0  0  0  0  0  0
   -0.7306    0.1422   -1.2941 C   0  0  0  0  0  0  0  0  0  0  0  0
   -2.0426   -0.1498   -0.6600 C   0  0  0  0  0  0  0  0  0  0  0  0
   -1.7785    0.0178    0.8223 C   0  0  0  0  0  0  0  0  0  0  0  0
   -0.3476   -0.3250    0.9421 C   0  0  0  0  0  0  0  0  0  0  0  0
    3.5027    0.3110    0.3308 H   0  0  0  0  0  0  0  0  0  0  0  0
    2.2221   -0.6601    1.2347 H   0  0  0  0  0  0  0  0  0  0  0  0
    1.2196    1.3704    0.3176 H   0  0  0  0  0  0  0  0  0  0  0  0
    1.6435    0.9536   -1.3422 H   0  0  0  0  0  0  0  0  0  0  0  0
   -0.5627    1.1786   -1.6094 H   0  0  0  0  0  0  0  0  0  0  0  0
   -0.6336   -0.4790   -2.2361 H   0  0  0  0  0  0  0  0  0  0  0  0
   -2.2657   -1.2200   -0.8076 H   0  0  0  0  0  0  0  0  0  0  0  0
   -2.8378    0.5198   -0.9726 H   0  0  0  0  0  0  0  0  0  0  0  0
   -2.4081   -0.7167    1.3847 H   0  0  0  0  0  0  0  0  0  0  0  0
   -1.9610    1.0533    1.1729 H   0  0  0  0  0  0  0  0  0  0  0  0
    0.2086    0.4297    1.5744 H   0  0  0  0  0  0  0  0  0  0  0  0
   -0.1712   -1.2959    1.4203 H   0  0  0  0  0  0  0  0  0  0  0  0
  1  2  1  0
  2  3  1  0
  3  4  1  0
  4  5  1  0
  5  6  1  0
  6  7  1  0
  7  8  1  0
  8  4  1  0
  2  9  1  0
  2 10  1  0
  3 11  1  0
  3 12  1  0
  5 13  1  0
  5 14  1  0
  6 15  1  0
  6 16  1  0
  7 17  1  0
  7 18  1  0
  8 19  1  0
  8 20  1  0
M  END
