
     RDKit          3D

 23 23  0  0  0  0  0  0  0  0999 V2000
    3.1450    1.1295   -0.1119 R   0  0  0  0  0  1  0  0  0  0  0  0
    2.3637    0.9872    0.2698 C   0  0  0  0  0  0  0  0  0  0  0  0
    1.6899   -0.1883   -0.3409 C   0  0  0  0  0  0  0  0  0  0  0  0
    0.3869   -0.4065    0.2748 N   0  0  0  0  0  0  0  0  0  0  0  0
   -0.0750   -1.7683   -0.1065 C   0  0  0  0  0  0  0  0  0  0  0  0
   -1.5132   -1.6762    0.3331 C   0  0  0  0  0  0  0  0  0  0  0  0
   -1.9189   -0.2307    0.1360 C   0  0  0  0  0  0  0  0  0  0  0  0
   -0.6248    0.4326   -0.3557 C   0  0  0  0  0  0  0  0  0  0  0  0
   -0.6686    1.8472    0.0336 C   0  0  0  0  0  0  0  0  0  0  0  0
    1.7709    1.8787    0.3380 H   0  0  0  0  0  0  0  0  0  0  0  0
    2.6792    0.7053    1.3213 H   0  0  0  0  0  0  0  0  0  0  0  0
    2.2958   -1.1112   -0.1133 H   0  0  0  0  0  0  0  0  0  0  0  0
    1.5935   -0.1175   -1.4495 H   0  0  0  0  0  0  0  0  0  0  0  0
    0.5115   -2.5099    0.4586 H   0  0  0  0  0  0  0  0  0  0  0  0
    0.0347   -1.9524   -1.1704 H   0  0  0  0  0  0  0  0  0  0  0  0
   -2.1961   -2.2912   -0.2573 H   0  0  0  0  0  0  0  0  0  0  0  0
   -1.5280   -1.9309    1.4113 H   0  0  0  0  0  0  0  0  0  0  0  0
   -2.2144    0.2297    1.0952 H   0  0  0  0  0  0  0  0  0  0  0  0
   -2.7266   -0.1425   -0.6256 H   0  0  0  0  0  0  0  0  0  0  0  0
   -0.6218    0.3147   -1.4523 H   0  0  0  0  0  0  0  0  0  0  0  0
   -0.4516    2.0758    1.0796 H   0  0  0  0  0  0  0  0  0  0  0  0
   -1.7618    2.1671   -0.0739 H   0  0  0  0  0  0  0  0  0  0  0  0
   -0.1707    2.5577   -0.6940 H   0  0  0  0  0  0  0  0  0  0  0  0
  1  2  1  0
  2  3  1  0
  3  4  1  0
  4  5  1  0
  5  6  1  0
  6  7  1  0
  7  8  1  0
  8  9  1  0
  8  4  1  0
  2 10  1  0
  2 11  1  0
  3 12  1  0
  3 13  1  0
  5 14  1  0
  5 15  1  0
  6 16  1  0
  6 17  1  0
  7 18  1  0
  7 19  1  0
  8 20  1  0
  9 21  1  0
  9 22  1  0
  9 23  1  0
M  END
