
     RDKit          3D

 19 19  0  0  0  0  0  0  0  0999 V2000
   -3.4704    0.5777   -1.2048 R   0  0  0  0  0  1  0  0  0  0  0  0
   -3.2402   -0.2761   -1.3062 C   0  0  0  0  0  0  0  0  0  0  0  0
   -1.9804   -0.5451   -0.5036 C   0  0  0  0  0  0  0  0  0  0  0  0
   -0.9112    0.2758   -0.9439 O   0  0  0  0  0  0  0  0  0  0  0  0
    0.3422    0.2499   -0.4036 C   0  0  0  0  0  0  0  0  0  0  0  0
    1.2928    1.1071   -0.9312 C   0  0  0  0  0  0  0  0  0  0  0  0
    2.5782    1.1502   -0.4516 C   0  0  0  0  0  0  0  0  0  0  0  0
    2.9701    0.3319    0.5835 C   0  0  0  0  0  0  0  0  0  0  0  0
    2.0330   -0.5405    1.1328 C   0  0  0  0  0  0  0  0  0  0  0  0
    0.7418   -0.5685    0.6347 C   0  0  0  0  0  0  0  0  0  0  0  0
   -3.0227   -0.3379   -2.3982 H   0  0  0  0  0  0  0  0  0  0  0  0
   -4.0317   -0.9547   -0.9944 H   0  0  0  0  0  0  0  0  0  0  0  0
   -1.7588   -1.6230   -0.6090 H   0  0  0  0  0  0  0  0  0  0  0  0
   -2.2133   -0.3672    0.5693 H   0  0  0  0  0  0  0  0  0  0  0  0
    1.0290    1.7646   -1.7420 H   0  0  0  0  0  0  0  0  0  0  0  0
    3.3314    1.8247   -0.8647 H   0  0  0  0  0  0  0  0  0  0  0  0
    3.9876    0.3677    0.9613 H   0  0  0  0  0  0  0  0  0  0  0  0
    2.3199   -1.2007    1.9560 H   0  0  0  0  0  0  0  0  0  0  0  0
    0.0025   -1.2360    1.0460 H   0  0  0  0  0  0  0  0  0  0  0  0
  1  2  1  0
  2  3  1  0
  3  4  1  0
  4  5  1  0
  5  6  2  0
  6  7  1  0
  7  8  2  0
  8  9  1  0
  9 10  2  0
 10  5  1  0
  2 11  1  0
  2 12  1  0
  3 13  1  0
  3 14  1  0
  6 15  1  0
  7 16  1  0
  8 17  1  0
  9 18  1  0
 10 19  1  0
M  END
