
     RDKit          3D

  5  4  0  0  0  0  0  0  0  0999 V2000
   -0.2000   -0.0265    0.9399 R   0  0  0  0  0  1  0  0  0  0  0  0
   -0.0427   -0.0058   -0.0139 C   0  0  0  0  0  0  0  0  0  0  0  0
    1.2975   -0.1213   -0.1692 F   0  0  0  0  0  0  0  0  0  0  0  0
   -0.4077    0.9732   -0.3459 H   0  0  0  0  0  0  0  0  0  0  0  0
   -0.6471   -0.8196   -0.4110 H   0  0  0  0  0  0  0  0  0  0  0  0
  1  2  1  0
  2  3  1  0
  2  4  1  0
  2  5  1  0
M  END
