
     RDKit          3D

  7  6  0  0  0  0  0  0  0  0999 V2000
   -0.8045   -0.2681    0.8626 R   0  0  0  0  0  1  0  0  0  0  0  0
   -0.5227    0.1526   -0.3126 C   0  0  0  0  0  0  0  0  0  0  0  0
    0.8204   -0.0257   -0.0316 N   0  0  0  0  0  0  0  0  0  0  0  0
   -1.1019   -0.6857   -0.6358 H   0  0  0  0  0  0  0  0  0  0  0  0
   -1.0353    1.0404    0.0308 H   0  0  0  0  0  0  0  0  0  0  0  0
    1.1653   -0.9329    0.2768 H   0  0  0  0  0  0  0  0  0  0  0  0
    1.4787    0.7194   -0.1902 H   0  0  0  0  0  0  0  0  0  0  0  0
  1  2  1  0
  2  3  1  0
  2  4  1  0
  2  5  1  0
  3  6  1  0
  3  7  1  0
M  END
