
     RDKit          3D

 15 15  0  0  0  0  0  0  0  0999 V2000
   -2.5840    0.4682    1.1637 R   0  0  0  0  0  1  0  0  0  0  0  0
   -2.3605    0.9361    0.0452 C   0  0  0  0  0  0  0  0  0  0  0  0
   -1.2315    0.1321   -0.1913 N   0  0  0  0  0  0  0  0  0  0  0  0
    0.0531    0.3194    0.0655 N   0  0  0  0  0  0  0  0  0  0  0  0
    0.7793   -0.7131   -0.3323 C   0  0  0  0  0  0  0  0  0  0  0  0
    2.1529   -0.8246   -0.2064 O   0  0  0  0  0  0  0  0  0  0  0  0
    2.9529    0.1848    0.3794 C   0  0  0  0  0  0  0  0  0  0  0  0
   -0.0530   -1.5674   -0.8483 O   0  0  0  0  0  0  0  0  0  0  0  0
   -1.2754   -1.0878   -0.7789 C   0  0  0  0  0  0  0  0  0  0  0  0
   -2.2799   -1.7175   -1.2102 O   0  0  0  0  0  0  0  0  0  0  0  0
   -2.2426    1.8947    0.4914 H   0  0  0  0  0  0  0  0  0  0  0  0
   -3.3249    0.5652   -0.2127 H   0  0  0  0  0  0  0  0  0  0  0  0
    2.3241    0.7216    1.1159 H   0  0  0  0  0  0  0  0  0  0  0  0
    3.2642    0.9260   -0.3989 H   0  0  0  0  0  0  0  0  0  0  0  0
    3.8252   -0.2377    0.9178 H   0  0  0  0  0  0  0  0  0  0  0  0
  1  2  1  0
  2  3  1  0
  3  4  1  0
  4  5  2  0
  5  6  1  0
  6  7  1  0
  5  8  1  0
  8  9  1  0
  9 10  2  0
  9  3  1  0
  2 11  1  0
  2 12  1  0
  7 13  1  0
  7 14  1  0
  7 15  1  0
M  END
