
     RDKit          3D

 19 20  0  0  0  0  0  0  0  0999 V2000
    3.5395   -0.6778    0.6179 R   0  0  0  0  0  1  0  0  0  0  0  0
    3.2785   -0.2036   -0.0901 C   0  0  0  0  0  0  0  0  0  0  0  0
    1.8294   -0.1159   -0.0482 N   0  0  0  0  0  0  0  0  0  0  0  0
    1.0581    0.8858    0.5853 C   0  0  0  0  0  0  0  0  0  0  0  0
    1.5155    1.8720    1.2209 O   0  0  0  0  0  0  0  0  0  0  0  0
   -0.3639    0.6243    0.4039 C   0  0  0  0  0  0  0  0  0  0  0  0
   -1.5347    1.2487    0.7920 C   0  0  0  0  0  0  0  0  0  0  0  0
   -2.7742    0.7450    0.4575 C   0  0  0  0  0  0  0  0  0  0  0  0
   -2.8822   -0.4187   -0.2884 C   0  0  0  0  0  0  0  0  0  0  0  0
   -1.7198   -1.0500   -0.6810 C   0  0  0  0  0  0  0  0  0  0  0  0
   -0.4707   -0.5344   -0.3387 C   0  0  0  0  0  0  0  0  0  0  0  0
    0.8908   -1.0134   -0.6319 C   0  0  0  0  0  0  0  0  0  0  0  0
    1.1500   -2.0514   -1.2937 O   0  0  0  0  0  0  0  0  0  0  0  0
    3.5687   -0.7070   -1.0260 H   0  0  0  0  0  0  0  0  0  0  0  0
    3.7371    0.8115    0.0208 H   0  0  0  0  0  0  0  0  0  0  0  0
   -1.4679    2.1554    1.3729 H   0  0  0  0  0  0  0  0  0  0  0  0
   -3.7105    1.2215    0.7532 H   0  0  0  0  0  0  0  0  0  0  0  0
   -3.8661   -0.8170   -0.5529 H   0  0  0  0  0  0  0  0  0  0  0  0
   -1.7776   -1.9751   -1.2736 H   0  0  0  0  0  0  0  0  0  0  0  0
  1  2  1  0
  2  3  1  0
  3  4  1  0
  4  5  2  0
  4  6  1  0
  6  7  2  0
  7  8  1  0
  8  9  2  0
  9 10  1  0
 10 11  2  0
 11 12  1  0
 12 13  2  0
 12  3  1  0
 11  6  1  0
  2 14  1  0
  2 15  1  0
  7 16  1  0
  8 17  1  0
  9 18  1  0
 10 19  1  0
M  END
