
     RDKit          3D

 18 18  0  0  0  0  0  0  0  0999 V2000
    2.6225    0.2494   -0.1764 R   0  0  0  0  0  1  0  0  0  0  0  0
    1.9527   -0.2139   -0.4694 C   0  0  0  0  0  0  0  0  0  0  0  0
    0.7891   -0.0500    0.3081 N   0  0  0  0  0  0  0  0  0  0  0  0
    0.2491    1.2411    0.4255 C   0  0  0  0  0  0  0  0  0  0  0  0
   -1.0400    1.2956   -0.4030 C   0  0  0  0  0  0  0  0  0  0  0  0
   -1.9154    0.4304    0.2314 O   0  0  0  0  0  0  0  0  0  0  0  0
   -1.5338   -0.8702    0.2583 C   0  0  0  0  0  0  0  0  0  0  0  0
   -0.0845   -1.1374    0.4298 C   0  0  0  0  0  0  0  0  0  0  0  0
    1.8492    0.0339   -1.5425 H   0  0  0  0  0  0  0  0  0  0  0  0
    2.2735   -1.2753   -0.4252 H   0  0  0  0  0  0  0  0  0  0  0  0
   -0.0876    1.3831    1.4946 H   0  0  0  0  0  0  0  0  0  0  0  0
    0.9483    2.0270    0.1724 H   0  0  0  0  0  0  0  0  0  0  0  0
   -1.4440    2.3061   -0.4052 H   0  0  0  0  0  0  0  0  0  0  0  0
   -0.8621    0.8928   -1.4191 H   0  0  0  0  0  0  0  0  0  0  0  0
   -2.0885   -1.3704    1.1064 H   0  0  0  0  0  0  0  0  0  0  0  0
   -1.9590   -1.3705   -0.6595 H   0  0  0  0  0  0  0  0  0  0  0  0
    0.1261   -1.6561    1.4119 H   0  0  0  0  0  0  0  0  0  0  0  0
    0.2044   -1.9155   -0.3379 H   0  0  0  0  0  0  0  0  0  0  0  0
  1  2  1  0
  2  3  1  0
  3  4  1  0
  4  5  1  0
  5  6  1  0
  6  7  1  0
  7  8  1  0
  8  3  1  0
  2  9  1  0
  2 10  1  0
  4 11  1  0
  4 12  1  0
  5 13  1  0
  5 14  1  0
  7 15  1  0
  7 16  1  0
  8 17  1  0
  8 18  1  0
M  END
