
     RDKit          3D

 19 19  0  0  0  0  0  0  0  0999 V2000
    1.0503    0.2163   -1.2039 R   0  0  0  0  0  1  0  0  0  0  0  0
    1.8132    0.3726   -0.3383 C   0  0  0  0  0  0  0  0  0  0  0  0
    0.9304    0.1723    0.7350 N   0  0  0  0  0  0  0  0  0  0  0  0
    0.2899   -1.1039    0.7884 C   0  0  0  0  0  0  0  0  0  0  0  0
   -0.5958   -1.3378   -0.4333 C   0  0  0  0  0  0  0  0  0  0  0  0
   -1.6382   -0.3295   -0.3863 N   0  0  0  0  0  0  0  0  0  0  0  0
   -1.0188    0.9664   -0.5079 C   0  0  0  0  0  0  0  0  0  0  0  0
   -0.1104    1.1843    0.7004 C   0  0  0  0  0  0  0  0  0  0  0  0
    1.9832    1.3666   -0.6940 H   0  0  0  0  0  0  0  0  0  0  0  0
    2.4567   -0.4241   -0.6433 H   0  0  0  0  0  0  0  0  0  0  0  0
    0.9475   -1.9505    0.9826 H   0  0  0  0  0  0  0  0  0  0  0  0
   -0.4294   -1.0623    1.6570 H   0  0  0  0  0  0  0  0  0  0  0  0
    0.0274   -1.2731   -1.3407 H   0  0  0  0  0  0  0  0  0  0  0  0
   -1.0444   -2.3518   -0.3258 H   0  0  0  0  0  0  0  0  0  0  0  0
   -2.0586   -0.3933    0.5794 H   0  0  0  0  0  0  0  0  0  0  0  0
   -0.3956    0.9479   -1.4246 H   0  0  0  0  0  0  0  0  0  0  0  0
   -1.7472    1.7890   -0.5004 H   0  0  0  0  0  0  0  0  0  0  0  0
    0.2846    2.2129    0.7394 H   0  0  0  0  0  0  0  0  0  0  0  0
   -0.7446    0.9979    1.6161 H   0  0  0  0  0  0  0  0  0  0  0  0
  1  2  1  0
  2  3  1  0
  3  4  1  0
  4  5  1  0
  5  6  1  0
  6  7  1  0
  7  8  1  0
  8  3  1  0
  2  9  1  0
  2 10  1  0
  4 11  1  0
  4 12  1  0
  5 13  1  0
  5 14  1  0
  6 15  1  0
  7 16  1  0
  7 17  1  0
  8 18  1  0
  8 19  1  0
M  END
