
     RDKit          3D

 20 20  0  0  0  0  0  0  0  0999 V2000
    2.2168    0.3707   -1.3642 R   0  0  0  0  0  1  0  0  0  0  0  0
    2.1530   -0.1132   -0.6792 C   0  0  0  0  0  0  0  0  0  0  0  0
    0.8732    0.0081   -0.1034 N   0  0  0  0  0  0  0  0  0  0  0  0
    0.4290    1.2489    0.3375 C   0  0  0  0  0  0  0  0  0  0  0  0
   -1.0870    1.1643    0.5725 C   0  0  0  0  0  0  0  0  0  0  0  0
   -1.6056    0.1907   -0.4739 C   0  0  0  0  0  0  0  0  0  0  0  0
   -1.2453   -1.2190   -0.0025 C   0  0  0  0  0  0  0  0  0  0  0  0
    0.2409   -1.1536    0.3675 C   0  0  0  0  0  0  0  0  0  0  0  0
    2.2951   -1.1584   -1.0299 H   0  0  0  0  0  0  0  0  0  0  0  0
    2.9644    0.1122    0.0298 H   0  0  0  0  0  0  0  0  0  0  0  0
    0.9008    1.6161    1.2756 H   0  0  0  0  0  0  0  0  0  0  0  0
    0.5623    2.0194   -0.4489 H   0  0  0  0  0  0  0  0  0  0  0  0
   -1.5628    2.1497    0.4788 H   0  0  0  0  0  0  0  0  0  0  0  0
   -1.1993    0.7420    1.6027 H   0  0  0  0  0  0  0  0  0  0  0  0
   -1.0145    0.3335   -1.4204 H   0  0  0  0  0  0  0  0  0  0  0  0
   -2.6819    0.3014   -0.6461 H   0  0  0  0  0  0  0  0  0  0  0  0
   -1.3931   -1.8986   -0.8788 H   0  0  0  0  0  0  0  0  0  0  0  0
   -1.8722   -1.5234    0.8354 H   0  0  0  0  0  0  0  0  0  0  0  0
    0.2476   -1.1342    1.4964 H   0  0  0  0  0  0  0  0  0  0  0  0
    0.7788   -2.0567    0.0510 H   0  0  0  0  0  0  0  0  0  0  0  0
  1  2  1  0
  2  3  1  0
  3  4  1  0
  4  5  1  0
  5  6  1  0
  6  7  1  0
  7  8  1  0
  8  3  1  0
  2  9  1  0
  2 10  1  0
  4 11  1  0
  4 12  1  0
  5 13  1  0
  5 14  1  0
  6 15  1  0
  6 16  1  0
  7 17  1  0
  7 18  1  0
  8 19  1  0
  8 20  1  0
M  END
