
     RDKit          3D

 13 12  0  0  0  0  0  0  0  0999 V2000
   -2.3290   -0.6423   -0.7410 R   0  0  0  0  0  1  0  0  0  0  0  0
   -1.8463    0.0807   -0.3189 C   0  0  0  0  0  0  0  0  0  0  0  0
   -0.4985   -0.3840   -0.3298 N   0  0  0  0  0  0  0  0  0  0  0  0
    0.4548    0.4946    0.2416 C   0  0  0  0  0  0  0  0  0  0  0  0
    1.8260   -0.1716    0.1392 C   0  0  0  0  0  0  0  0  0  0  0  0
   -2.0792    0.8800   -1.0120 H   0  0  0  0  0  0  0  0  0  0  0  0
   -2.3388    0.0968    0.6468 H   0  0  0  0  0  0  0  0  0  0  0  0
   -0.3491   -1.3678   -0.1127 H   0  0  0  0  0  0  0  0  0  0  0  0
    0.2301    0.5808    1.3410 H   0  0  0  0  0  0  0  0  0  0  0  0
    0.4759    1.5046   -0.1622 H   0  0  0  0  0  0  0  0  0  0  0  0
    1.8042   -0.9125   -0.6945 H   0  0  0  0  0  0  0  0  0  0  0  0
    2.6142    0.5799   -0.0598 H   0  0  0  0  0  0  0  0  0  0  0  0
    2.0357   -0.7393    1.0623 H   0  0  0  0  0  0  0  0  0  0  0  0
  1  2  1  0
  2  3  1  0
  3  4  1  0
  4  5  1  0
  2  6  1  0
  2  7  1  0
  3  8  1  0
  4  9  1  0
  4 10  1  0
  5 11  1  0
  5 12  1  0
  5 13  1  0
M  END
