
     RDKit          3D

 20 20  0  0  0  0  0  0  0  0999 V2000
   -3.2926   -0.0505   -1.0446 R   0  0  0  0  0  1  0  0  0  0  0  0
   -3.2932   -0.2519   -0.1908 C   0  0  0  0  0  0  0  0  0  0  0  0
   -1.8946   -0.6168    0.0701 N   0  0  0  0  0  0  0  0  0  0  0  0
   -1.0992    0.5538   -0.2535 C   0  0  0  0  0  0  0  0  0  0  0  0
    0.3439    0.3104   -0.0305 C   0  0  0  0  0  0  0  0  0  0  0  0
    0.9804    0.5561    1.1680 C   0  0  0  0  0  0  0  0  0  0  0  0
    2.3316    0.3174    1.3429 C   0  0  0  0  0  0  0  0  0  0  0  0
    3.0567   -0.1819    0.2803 C   0  0  0  0  0  0  0  0  0  0  0  0
    2.4496   -0.4390   -0.9337 C   0  0  0  0  0  0  0  0  0  0  0  0
    1.1007   -0.1881   -1.0690 C   0  0  0  0  0  0  0  0  0  0  0  0
   -3.8820   -1.1734   -0.0105 H   0  0  0  0  0  0  0  0  0  0  0  0
   -3.6178    0.5795    0.4322 H   0  0  0  0  0  0  0  0  0  0  0  0
   -1.6077   -1.4300   -0.4948 H   0  0  0  0  0  0  0  0  0  0  0  0
   -1.4176    1.4275    0.3379 H   0  0  0  0  0  0  0  0  0  0  0  0
   -1.2506    0.7623   -1.3396 H   0  0  0  0  0  0  0  0  0  0  0  0
    0.4100    0.9466    1.9969 H   0  0  0  0  0  0  0  0  0  0  0  0
    2.8658    0.4968    2.2652 H   0  0  0  0  0  0  0  0  0  0  0  0
    4.1159   -0.3776    0.3905 H   0  0  0  0  0  0  0  0  0  0  0  0
    3.0450   -0.8376   -1.7708 H   0  0  0  0  0  0  0  0  0  0  0  0
    0.6557   -0.4037   -2.0434 H   0  0  0  0  0  0  0  0  0  0  0  0
  1  2  1  0
  2  3  1  0
  3  4  1  0
  4  5  1  0
  5  6  2  0
  6  7  1  0
  7  8  2  0
  8  9  1  0
  9 10  2  0
 10  5  1  0
  2 11  1  0
  2 12  1  0
  3 13  1  0
  4 14  1  0
  4 15  1  0
  6 16  1  0
  7 17  1  0
  8 18  1  0
  9 19  1  0
 10 20  1  0
M  END
