
     RDKit          3D

 10  9  0  0  0  0  0  0  0  0999 V2000
    1.0788   -0.8493   -0.6862 R   0  0  0  0  0  1  0  0  0  0  0  0
    1.1695   -0.2718   -0.1526 C   0  0  0  0  0  0  0  0  0  0  0  0
    0.0800    0.7147   -0.0929 N   0  0  0  0  0  0  0  0  0  0  0  0
   -1.1585    0.0323    0.2401 C   0  0  0  0  0  0  0  0  0  0  0  0
    2.1027    0.3351   -0.1732 H   0  0  0  0  0  0  0  0  0  0  0  0
    1.1430   -0.7375    0.8754 H   0  0  0  0  0  0  0  0  0  0  0  0
    0.0272    1.2457   -0.9826 H   0  0  0  0  0  0  0  0  0  0  0  0
   -1.8505    0.1296   -0.6104 H   0  0  0  0  0  0  0  0  0  0  0  0
   -1.6461    0.4477    1.1407 H   0  0  0  0  0  0  0  0  0  0  0  0
   -0.9461   -1.0465    0.4417 H   0  0  0  0  0  0  0  0  0  0  0  0
  1  2  1  0
  2  3  1  0
  3  4  1  0
  2  5  1  0
  2  6  1  0
  3  7  1  0
  4  8  1  0
  4  9  1  0
  4 10  1  0
M  END
