
     RDKit          3D

 12 11  0  0  0  0  0  0  0  0999 V2000
   -2.4575    0.6023    0.0168 R   0  0  0  0  0  1  0  0  0  0  0  0
   -1.9366   -0.0284    0.1595 C   0  0  0  0  0  0  0  0  0  0  0  0
   -0.5784    0.4493   -0.0764 N   0  0  0  0  0  0  0  0  0  0  0  0
    0.5296   -0.4128    0.0898 C   0  0  0  0  0  0  0  0  0  0  0  0
    1.8930    0.0990   -0.1562 C   0  0  0  0  0  0  0  0  0  0  0  0
    0.3588   -1.5982    0.4418 O   0  0  0  0  0  0  0  0  0  0  0  0
   -2.1852   -0.8159   -0.5940 H   0  0  0  0  0  0  0  0  0  0  0  0
   -2.0140   -0.4008    1.2001 H   0  0  0  0  0  0  0  0  0  0  0  0
   -0.3990    1.4528   -0.3769 H   0  0  0  0  0  0  0  0  0  0  0  0
    1.9106    1.1591   -0.4450 H   0  0  0  0  0  0  0  0  0  0  0  0
    2.3371   -0.4750   -0.9983 H   0  0  0  0  0  0  0  0  0  0  0  0
    2.5417   -0.0315    0.7387 H   0  0  0  0  0  0  0  0  0  0  0  0
  1  2  1  0
  2  3  1  0
  3  4  1  0
  4  5  1  0
  4  6  2  0
  2  7  1  0
  2  8  1  0
  3  9  1  0
  5 10  1  0
  5 11  1  0
  5 12  1  0
M  END
