
     RDKit          3D

 12 11  0  0  0  0  0  0  0  0999 V2000
    0.6188   -1.1803   -0.0195 R   0  0  0  0  0  1  0  0  0  0  0  0
    1.5077   -0.3543   -0.3834 C   0  0  0  0  0  0  0  0  0  0  0  0
    0.6258    0.4484   -0.9966 O   0  0  0  0  0  0  0  0  0  0  0  0
   -0.3754    0.9772   -0.1810 C   0  0  0  0  0  0  0  0  0  0  0  0
   -1.1414   -0.1916    0.3970 C   0  0  0  0  0  0  0  0  0  0  0  0
    1.7229   -0.2242    0.6513 H   0  0  0  0  0  0  0  0  0  0  0  0
    1.9106   -1.1995   -0.9135 H   0  0  0  0  0  0  0  0  0  0  0  0
    0.1339    1.5735    0.6185 H   0  0  0  0  0  0  0  0  0  0  0  0
   -0.9981    1.6495   -0.7772 H   0  0  0  0  0  0  0  0  0  0  0  0
   -2.1464    0.0977    0.7513 H   0  0  0  0  0  0  0  0  0  0  0  0
   -0.5733   -0.6369    1.2353 H   0  0  0  0  0  0  0  0  0  0  0  0
   -1.2851   -0.9594   -0.3824 H   0  0  0  0  0  0  0  0  0  0  0  0
  1  2  1  0
  2  3  1  0
  3  4  1  0
  4  5  1  0
  2  6  1  0
  2  7  1  0
  4  8  1  0
  4  9  1  0
  5 10  1  0
  5 11  1  0
  5 12  1  0
M  END
