
     RDKit          3D

 10  9  0  0  0  0  0  0  0  0999 V2000
    1.5964   -0.4948    0.8397 R   0  0  0  0  0  1  0  0  0  0  0  0
    1.3797   -0.1200    0.1429 C   0  0  0  0  0  0  0  0  0  0  0  0
   -0.4025   -0.0796   -0.0900 P   0  0  0  0  0  5  0  0  0  0  0  0
   -0.7125   -0.5967   -1.4678 O   0  0  0  0  0  0  0  0  0  0  0  0
   -1.1981   -1.0556    1.0494 O   0  0  0  0  0  0  0  0  0  0  0  0
   -1.0072    1.4892    0.1353 O   0  0  0  0  0  0  0  0  0  0  0  0
    1.9194   -0.6223   -0.6948 H   0  0  0  0  0  0  0  0  0  0  0  0
    1.7619    0.9335    0.1426 H   0  0  0  0  0  0  0  0  0  0  0  0
   -2.0745   -1.2925    0.6843 H   0  0  0  0  0  0  0  0  0  0  0  0
   -1.2627    1.8389   -0.7417 H   0  0  0  0  0  0  0  0  0  0  0  0
  1  2  1  0
  2  3  1  0
  3  4  2  0
  3  5  1  0
  3  6  1  0
  2  7  1  0
  2  8  1  0
  5  9  1  0
  6 10  1  0
M  END
