
     RDKit          3D

 20 20  0  0  0  0  0  0  0  0999 V2000
    2.8317   -0.2285   -0.9342 R   0  0  0  0  0  1  0  0  0  0  0  0
    2.1253    0.1934   -0.4852 N   0  0  0  0  0  0  0  0  0  0  0  0
    2.4566   -0.0282    0.9073 C   0  0  0  0  0  0  0  0  0  0  0  0
    1.0016   -0.6235   -0.9060 C   0  0  0  0  0  0  0  0  0  0  0  0
   -0.2673   -0.1633   -0.3347 C   0  0  0  0  0  0  0  0  0  0  0  0
   -0.6706   -0.6804    0.8780 C   0  0  0  0  0  0  0  0  0  0  0  0
   -1.8543   -0.3078    1.4996 C   0  0  0  0  0  0  0  0  0  0  0  0
   -2.6430    0.6219    0.8548 C   0  0  0  0  0  0  0  0  0  0  0  0
   -2.2461    1.1435   -0.3583 C   0  0  0  0  0  0  0  0  0  0  0  0
   -1.0691    0.7694   -0.9707 C   0  0  0  0  0  0  0  0  0  0  0  0
    2.2857   -1.0708    1.2359 H   0  0  0  0  0  0  0  0  0  0  0  0
    3.5279    0.2096    1.1167 H   0  0  0  0  0  0  0  0  0  0  0  0
    1.8380    0.6545    1.4948 H   0  0  0  0  0  0  0  0  0  0  0  0
    0.9032   -0.6788   -1.9933 H   0  0  0  0  0  0  0  0  0  0  0  0
    1.1947   -1.6589   -0.5500 H   0  0  0  0  0  0  0  0  0  0  0  0
   -0.0795   -1.4184    1.4248 H   0  0  0  0  0  0  0  0  0  0  0  0
   -2.1470   -0.7357    2.4614 H   0  0  0  0  0  0  0  0  0  0  0  0
   -3.5687    0.9393    1.3007 H   0  0  0  0  0  0  0  0  0  0  0  0
   -2.8602    1.8776   -0.8762 H   0  0  0  0  0  0  0  0  0  0  0  0
   -0.7589    1.1852   -1.9315 H   0  0  0  0  0  0  0  0  0  0  0  0
  1  2  1  0
  2  3  1  0
  2  4  1  0
  4  5  1  0
  5  6  2  0
  6  7  1  0
  7  8  2  0
  8  9  1  0
  9 10  2  0
 10  5  1  0
  3 11  1  0
  3 12  1  0
  3 13  1  0
  4 14  1  0
  4 15  1  0
  6 16  1  0
  7 17  1  0
  8 18  1  0
  9 19  1  0
 10 20  1  0
M  END
