
     RDKit          3D

  4  3  0  0  0  0  0  0  0  0999 V2000
   -0.0478    0.8559   -0.0790 R   0  0  0  0  0  1  0  0  0  0  0  0
    0.0025   -0.1259    0.4012 N   0  0  0  0  0  0  0  0  0  0  0  0
    0.8696   -0.3333   -0.1596 H   0  0  0  0  0  0  0  0  0  0  0  0
   -0.8243   -0.3967   -0.1626 H   0  0  0  0  0  0  0  0  0  0  0  0
  1  2  1  0
  2  3  1  0
  2  4  1  0
M  END
