
     RDKit          3D

  8  8  0  0  0  0  0  0  0  0999 V2000
   -1.3064    1.3282   -0.2245 R   0  0  0  0  0  1  0  0  0  0  0  0
   -0.6894    0.7200   -0.1287 N   0  0  0  0  0  0  0  0  0  0  0  0
   -0.8676   -0.5786    0.0792 C   0  0  0  0  0  0  0  0  0  0  0  0
    0.4041   -1.0818    0.1568 N   0  0  0  0  0  0  0  0  0  0  0  0
    1.2951   -0.1003   -0.0020 C   0  0  0  0  0  0  0  0  0  0  0  0
    0.5860    1.0285   -0.1808 N   0  0  0  0  0  0  0  0  0  0  0  0
   -1.7727   -1.1543    0.1732 H   0  0  0  0  0  0  0  0  0  0  0  0
    2.3509   -0.1617    0.0055 H   0  0  0  0  0  0  0  0  0  0  0  0
  1  2  1  0
  2  3  1  0
  3  4  2  0
  4  5  1  0
  5  6  2  0
  6  2  1  0
  3  7  1  0
  5  8  1  0
M  END
