
     RDKit          3D

 13 13  0  0  0  0  0  0  0  0999 V2000
    1.3474    1.6942   -0.3077 R   0  0  0  0  0  1  0  0  0  0  0  0
    0.7836    1.0524   -0.2360 N   0  0  0  0  0  0  0  0  0  0  0  0
    1.1857   -0.3014    0.0720 C   0  0  0  0  0  0  0  0  0  0  0  0
   -0.1159   -0.8294    0.6932 C   0  0  0  0  0  0  0  0  0  0  0  0
   -1.1016   -0.2580   -0.3103 C   0  0  0  0  0  0  0  0  0  0  0  0
   -0.6210    1.1384   -0.3915 C   0  0  0  0  0  0  0  0  0  0  0  0
   -1.2775    2.1865   -0.5592 O   0  0  0  0  0  0  0  0  0  0  0  0
    2.0241   -0.3684    0.7583 H   0  0  0  0  0  0  0  0  0  0  0  0
    1.3200   -0.9209   -0.8528 H   0  0  0  0  0  0  0  0  0  0  0  0
   -0.1320   -1.9203    0.7276 H   0  0  0  0  0  0  0  0  0  0  0  0
   -0.2989   -0.3415    1.6640 H   0  0  0  0  0  0  0  0  0  0  0  0
   -2.1483   -0.3357    0.0266 H   0  0  0  0  0  0  0  0  0  0  0  0
   -0.9657   -0.7958   -1.2842 H   0  0  0  0  0  0  0  0  0  0  0  0
  1  2  1  0
  2  3  1  0
  3  4  1  0
  4  5  1  0
  5  6  1  0
  6  7  2  0
  6  2  1  0
  3  8  1  0
  3  9  1  0
  4 10  1  0
  4 11  1  0
  5 12  1  0
  5 13  1  0
M  END
