
     RDKit          3D

 17 17  0  0  0  0  0  0  0  0999 V2000
    0.3493    2.0141    0.8833 R   0  0  0  0  0  1  0  0  0  0  0  0
    0.1582    1.5240    0.1248 N   0  0  0  0  0  0  0  0  0  0  0  0
   -1.0825    0.9478    0.3958 C   0  0  0  0  0  0  0  0  0  0  0  0
   -1.3013   -0.4551   -0.0682 C   0  0  0  0  0  0  0  0  0  0  0  0
   -0.0980   -1.3323    0.1624 C   0  0  0  0  0  0  0  0  0  0  0  0
    1.0808   -0.6897   -0.4815 C   0  0  0  0  0  0  0  0  0  0  0  0
    1.2612    0.7496   -0.2247 C   0  0  0  0  0  0  0  0  0  0  0  0
   -1.8857    1.5751   -0.0968 H   0  0  0  0  0  0  0  0  0  0  0  0
   -1.3781    0.9705    1.4872 H   0  0  0  0  0  0  0  0  0  0  0  0
   -1.5421   -0.4539   -1.1375 H   0  0  0  0  0  0  0  0  0  0  0  0
   -2.1537   -0.9093    0.5135 H   0  0  0  0  0  0  0  0  0  0  0  0
   -0.3008   -2.2892   -0.4015 H   0  0  0  0  0  0  0  0  0  0  0  0
    0.0995   -1.5589    1.2094 H   0  0  0  0  0  0  0  0  0  0  0  0
    1.9850   -1.2792   -0.1721 H   0  0  0  0  0  0  0  0  0  0  0  0
    1.0017   -0.8815   -1.5918 H   0  0  0  0  0  0  0  0  0  0  0  0
    1.7265    1.2074   -1.1508 H   0  0  0  0  0  0  0  0  0  0  0  0
    2.0799    0.8605    0.5482 H   0  0  0  0  0  0  0  0  0  0  0  0
  1  2  1  0
  2  3  1  0
  3  4  1  0
  4  5  1  0
  5  6  1  0
  6  7  1  0
  7  2  1  0
  3  8  1  0
  3  9  1  0
  4 10  1  0
  4 11  1  0
  5 12  1  0
  5 13  1  0
  6 14  1  0
  6 15  1  0
  7 16  1  0
  7 17  1  0
M  END
