
     RDKit          3D

 18 18  0  0  0  0  0  0  0  0999 V2000
    0.8833    1.8828   -0.6534 R   0  0  0  0  0  1  0  0  0  0  0  0
    0.8062    1.4054   -0.0795 N   0  0  0  0  0  0  0  0  0  0  0  0
    1.6386    0.2562   -0.0639 C   0  0  0  0  0  0  0  0  0  0  0  0
    0.9178   -1.0067   -0.4763 C   0  0  0  0  0  0  0  0  0  0  0  0
   -0.3257   -1.2337    0.3365 C   0  0  0  0  0  0  0  0  0  0  0  0
   -1.1724   -0.0175    0.2801 C   0  0  0  0  0  0  0  0  0  0  0  0
   -1.7738    0.0215   -0.9986 O   0  0  0  0  0  0  0  0  0  0  0  0
   -0.4704    1.2682    0.5217 C   0  0  0  0  0  0  0  0  0  0  0  0
    2.4419    0.4130   -0.8441 H   0  0  0  0  0  0  0  0  0  0  0  0
    2.2096    0.1267    0.8892 H   0  0  0  0  0  0  0  0  0  0  0  0
    1.5705   -1.8716   -0.3534 H   0  0  0  0  0  0  0  0  0  0  0  0
    0.5991   -0.8481   -1.5384 H   0  0  0  0  0  0  0  0  0  0  0  0
   -0.8954   -2.0590   -0.1840 H   0  0  0  0  0  0  0  0  0  0  0  0
   -0.1283   -1.6138    1.3501 H   0  0  0  0  0  0  0  0  0  0  0  0
   -1.9841   -0.1254    1.0433 H   0  0  0  0  0  0  0  0  0  0  0  0
   -2.7392   -0.2138   -0.9118 H   0  0  0  0  0  0  0  0  0  0  0  0
   -1.1319    2.0668    0.0663 H   0  0  0  0  0  0  0  0  0  0  0  0
   -0.4458    1.5490    1.6160 H   0  0  0  0  0  0  0  0  0  0  0  0
  1  2  1  0
  2  3  1  0
  3  4  1  0
  4  5  1  0
  5  6  1  0
  6  7  1  0
  6  8  1  0
  8  2  1  0
  3  9  1  0
  3 10  1  0
  4 11  1  0
  4 12  1  0
  5 13  1  0
  5 14  1  0
  6 15  1  0
  7 16  1  0
  8 17  1  0
  8 18  1  0
M  END
