
     RDKit          3D

 15 15  0  0  0  0  0  0  0  0999 V2000
   -0.0867   -1.2732    1.2967 R   0  0  0  0  0  1  0  0  0  0  0  0
   -0.0524   -1.1326    0.7141 N   0  0  0  0  0  0  0  0  0  0  0  0
    1.1726   -0.7575   -0.0092 C   0  0  0  0  0  0  0  0  0  0  0  0
    1.1184    0.7459   -0.1662 C   0  0  0  0  0  0  0  0  0  0  0  0
    0.1541    1.3237    0.6732 O   0  0  0  0  0  0  0  0  0  0  0  0
   -1.1014    0.9357    0.1641 C   0  0  0  0  0  0  0  0  0  0  0  0
   -1.1355   -0.5591   -0.1022 C   0  0  0  0  0  0  0  0  0  0  0  0
    2.0762   -1.1147    0.4944 H   0  0  0  0  0  0  0  0  0  0  0  0
    1.0600   -1.2704   -1.0095 H   0  0  0  0  0  0  0  0  0  0  0  0
    2.1038    1.1998    0.0535 H   0  0  0  0  0  0  0  0  0  0  0  0
    0.7867    0.9848   -1.2062 H   0  0  0  0  0  0  0  0  0  0  0  0
   -1.2576    1.4814   -0.8018 H   0  0  0  0  0  0  0  0  0  0  0  0
   -1.9065    1.2318    0.8842 H   0  0  0  0  0  0  0  0  0  0  0  0
   -0.8520   -0.7664   -1.1592 H   0  0  0  0  0  0  0  0  0  0  0  0
   -2.0797   -1.0292    0.1740 H   0  0  0  0  0  0  0  0  0  0  0  0
  1  2  1  0
  2  3  1  0
  3  4  1  0
  4  5  1  0
  5  6  1  0
  6  7  1  0
  7  2  1  0
  3  8  1  0
  3  9  1  0
  4 10  1  0
  4 11  1  0
  6 12  1  0
  6 13  1  0
  7 14  1  0
  7 15  1  0
M  END
