
     RDKit          3D

 14 14  0  0  0  0  0  0  0  0999 V2000
    0.1464   -1.3405   -0.7708 R   0  0  0  0  0  1  0  0  0  0  0  0
    0.2279   -1.3639    0.2530 N   0  0  0  0  0  0  0  0  0  0  0  0
   -1.0442   -0.6527    0.4398 C   0  0  0  0  0  0  0  0  0  0  0  0
   -0.8902    0.6134   -0.3423 C   0  0  0  0  0  0  0  0  0  0  0  0
    0.5803    0.9141   -0.2640 C   0  0  0  0  0  0  0  0  0  0  0  0
    1.2512   -0.3090    0.2714 C   0  0  0  0  0  0  0  0  0  0  0  0
   -1.1315   -0.4482    1.5034 H   0  0  0  0  0  0  0  0  0  0  0  0
   -1.8627   -1.2971    0.0815 H   0  0  0  0  0  0  0  0  0  0  0  0
   -1.1750    0.4062   -1.4050 H   0  0  0  0  0  0  0  0  0  0  0  0
   -1.5263    1.4240    0.0816 H   0  0  0  0  0  0  0  0  0  0  0  0
    0.7669    1.7638    0.4422 H   0  0  0  0  0  0  0  0  0  0  0  0
    0.9722    1.1865   -1.2503 H   0  0  0  0  0  0  0  0  0  0  0  0
    2.0980   -0.6697   -0.3428 H   0  0  0  0  0  0  0  0  0  0  0  0
    1.5868   -0.2271    1.3020 H   0  0  0  0  0  0  0  0  0  0  0  0
  1  2  1  0
  2  3  1  0
  3  4  1  0
  4  5  1  0
  5  6  1  0
  6  2  1  0
  3  7  1  0
  3  8  1  0
  4  9  1  0
  4 10  1  0
  5 11  1  0
  5 12  1  0
  6 13  1  0
  6 14  1  0
M  END
