
     RDKit          3D

 10 10  0  0  0  0  0  0  0  0999 V2000
    1.9634    0.1510    0.3127 R   0  0  0  0  0  1  0  0  0  0  0  0
    1.1218    0.0864    0.1533 N   0  0  0  0  0  0  0  0  0  0  0  0
    0.2822    1.1252    0.0363 C   0  0  0  0  0  0  0  0  0  0  0  0
   -0.9596    0.6136   -0.2147 C   0  0  0  0  0  0  0  0  0  0  0  0
   -0.8464   -0.7375   -0.2450 C   0  0  0  0  0  0  0  0  0  0  0  0
    0.4633   -1.0694   -0.0134 C   0  0  0  0  0  0  0  0  0  0  0  0
    0.5554    2.1513    0.1262 H   0  0  0  0  0  0  0  0  0  0  0  0
   -1.8599    1.1815   -0.3610 H   0  0  0  0  0  0  0  0  0  0  0  0
   -1.6257   -1.4633   -0.4178 H   0  0  0  0  0  0  0  0  0  0  0  0
    0.9055   -2.0389    0.0322 H   0  0  0  0  0  0  0  0  0  0  0  0
  1  2  1  0
  2  3  1  0
  3  4  2  0
  4  5  1  0
  5  6  2  0
  6  2  1  0
  3  7  1  0
  4  8  1  0
  5  9  1  0
  6 10  1  0
M  END
