
     RDKit          3D

 16 16  0  0  0  0  0  0  0  0999 V2000
   -0.6829    1.7114   -0.8785 R   0  0  0  0  0  1  0  0  0  0  0  0
   -0.3950    1.2847   -0.3392 N   0  0  0  0  0  0  0  0  0  0  0  0
   -1.3005    0.3906    0.2621 C   0  0  0  0  0  0  0  0  0  0  0  0
   -0.9875   -1.0667    0.0091 C   0  0  0  0  0  0  0  0  0  0  0  0
    0.3490   -1.2680    0.5669 N   0  0  0  0  0  0  0  0  0  0  0  0
    1.3430   -0.4621   -0.0823 C   0  0  0  0  0  0  0  0  0  0  0  0
    0.9661    0.9203   -0.3898 C   0  0  0  0  0  0  0  0  0  0  0  0
   -1.3635    0.5060    1.3748 H   0  0  0  0  0  0  0  0  0  0  0  0
   -2.3253    0.6012   -0.1121 H   0  0  0  0  0  0  0  0  0  0  0  0
   -1.0511   -1.3331   -1.0507 H   0  0  0  0  0  0  0  0  0  0  0  0
   -1.6826   -1.6730    0.6038 H   0  0  0  0  0  0  0  0  0  0  0  0
    0.2821   -0.9351    1.5654 H   0  0  0  0  0  0  0  0  0  0  0  0
    1.7243   -1.0093   -0.9952 H   0  0  0  0  0  0  0  0  0  0  0  0
    2.2367   -0.4779    0.6122 H   0  0  0  0  0  0  0  0  0  0  0  0
    1.3534    1.1736   -1.4226 H   0  0  0  0  0  0  0  0  0  0  0  0
    1.5337    1.6376    0.2761 H   0  0  0  0  0  0  0  0  0  0  0  0
  1  2  1  0
  2  3  1  0
  3  4  1  0
  4  5  1  0
  5  6  1  0
  6  7  1  0
  7  2  1  0
  3  8  1  0
  3  9  1  0
  4 10  1  0
  4 11  1  0
  5 12  1  0
  6 13  1  0
  6 14  1  0
  7 15  1  0
  7 16  1  0
M  END
