
     RDKit          3D

  9  9  0  0  0  0  0  0  0  0999 V2000
   -1.8172   -1.0708   -0.1007 R   0  0  0  0  0  1  0  0  0  0  0  0
   -1.0647   -0.7176   -0.1118 N   0  0  0  0  0  0  0  0  0  0  0  0
   -0.7577    0.5577    0.1531 C   0  0  0  0  0  0  0  0  0  0  0  0
    0.5958    0.7630    0.0308 C   0  0  0  0  0  0  0  0  0  0  0  0
    1.1071   -0.4660   -0.3265 C   0  0  0  0  0  0  0  0  0  0  0  0
    0.0731   -1.3179   -0.3986 N   0  0  0  0  0  0  0  0  0  0  0  0
   -1.4789    1.3223    0.4264 H   0  0  0  0  0  0  0  0  0  0  0  0
    1.1823    1.6530    0.1686 H   0  0  0  0  0  0  0  0  0  0  0  0
    2.1602   -0.7236   -0.5211 H   0  0  0  0  0  0  0  0  0  0  0  0
  1  2  1  0
  2  3  1  0
  3  4  2  0
  4  5  1  0
  5  6  2  0
  6  2  1  0
  3  7  1  0
  4  8  1  0
  5  9  1  0
M  END
