
     RDKit          3D

 18 18  0  0  0  0  0  0  0  0999 V2000
    0.9168    1.6284   -0.8103 R   0  0  0  0  0  1  0  0  0  0  0  0
    1.0838    1.3207   -0.0902 N   0  0  0  0  0  0  0  0  0  0  0  0
    1.5731   -0.0240   -0.1277 C   0  0  0  0  0  0  0  0  0  0  0  0
    0.5625   -0.9945   -0.7446 C   0  0  0  0  0  0  0  0  0  0  0  0
   -0.6774   -0.8679    0.1499 C   0  0  0  0  0  0  0  0  0  0  0  0
   -1.6161   -1.8265   -0.1140 O   0  0  0  0  0  0  0  0  0  0  0  0
   -1.1687    0.5472   -0.0831 C   0  0  0  0  0  0  0  0  0  0  0  0
   -0.1648    1.4405    0.6599 C   0  0  0  0  0  0  0  0  0  0  0  0
    1.6809   -0.3636    0.9351 H   0  0  0  0  0  0  0  0  0  0  0  0
    2.5267   -0.0413   -0.6447 H   0  0  0  0  0  0  0  0  0  0  0  0
    0.3225   -0.6156   -1.7649 H   0  0  0  0  0  0  0  0  0  0  0  0
    0.9826   -1.9943   -0.7397 H   0  0  0  0  0  0  0  0  0  0  0  0
   -0.2826   -0.9861    1.1962 H   0  0  0  0  0  0  0  0  0  0  0  0
   -1.9920   -2.1852    0.7502 H   0  0  0  0  0  0  0  0  0  0  0  0
   -2.1915    0.7199    0.2220 H   0  0  0  0  0  0  0  0  0  0  0  0
   -1.0364    0.7754   -1.1586 H   0  0  0  0  0  0  0  0  0  0  0  0
   -0.0433    0.9866    1.6750 H   0  0  0  0  0  0  0  0  0  0  0  0
   -0.4760    2.4804    0.6895 H   0  0  0  0  0  0  0  0  0  0  0  0
  1  2  1  0
  2  3  1  0
  3  4  1  0
  4  5  1  0
  5  6  1  0
  5  7  1  0
  7  8  1  0
  8  2  1  0
  3  9  1  0
  3 10  1  0
  4 11  1  0
  4 12  1  0
  5 13  1  0
  6 14  1  0
  7 15  1  0
  7 16  1  0
  8 17  1  0
  8 18  1  0
M  END
