
     RDKit          3D

 10 10  0  0  0  0  0  0  0  0999 V2000
    0.0885    2.0799   -0.1824 R   0  0  0  0  0  1  0  0  0  0  0  0
    0.0509    1.2497   -0.1095 N   0  0  0  0  0  0  0  0  0  0  0  0
   -1.1118    0.4485   -0.0159 C   0  0  0  0  0  0  0  0  0  0  0  0
   -2.2951    0.8764   -0.0286 O   0  0  0  0  0  0  0  0  0  0  0  0
   -0.6962   -0.9314    0.0953 C   0  0  0  0  0  0  0  0  0  0  0  0
    0.6143   -0.9978    0.0739 C   0  0  0  0  0  0  0  0  0  0  0  0
    1.1351    0.3388   -0.0529 C   0  0  0  0  0  0  0  0  0  0  0  0
    2.3708    0.6474   -0.1053 O   0  0  0  0  0  0  0  0  0  0  0  0
   -1.3700   -1.7955    0.1842 H   0  0  0  0  0  0  0  0  0  0  0  0
    1.2135   -1.9160    0.1412 H   0  0  0  0  0  0  0  0  0  0  0  0
  1  2  1  0
  2  3  1  0
  3  4  2  0
  3  5  1  0
  5  6  2  0
  6  7  1  0
  7  8  2  0
  7  2  1  0
  5  9  1  0
  6 10  1  0
M  END
