
     RDKit          3D

 21 21  0  0  0  0  0  0  0  0999 V2000
   -1.8674   -0.8553   -0.8488 R   0  0  0  0  0  1  0  0  0  0  0  0
   -2.1803   -0.4768   -0.1315 N   0  0  0  0  0  0  0  0  0  0  0  0
   -1.4294   -0.9600    1.0133 C   0  0  0  0  0  0  0  0  0  0  0  0
   -0.0212   -1.2090    0.5306 C   0  0  0  0  0  0  0  0  0  0  0  0
    0.5314   -0.0379   -0.1912 C   0  0  0  0  0  0  0  0  0  0  0  0
    1.7117    0.3489    0.4823 O   0  0  0  0  0  0  0  0  0  0  0  0
    2.8240    0.1956   -0.3430 C   0  0  0  0  0  0  0  0  0  0  0  0
   -0.3403    1.1504   -0.2937 C   0  0  0  0  0  0  0  0  0  0  0  0
   -1.7964    0.9092   -0.3250 C   0  0  0  0  0  0  0  0  0  0  0  0
   -1.3977   -0.1085    1.7385 H   0  0  0  0  0  0  0  0  0  0  0  0
   -1.8552   -1.8485    1.4761 H   0  0  0  0  0  0  0  0  0  0  0  0
   -0.0806   -2.1304   -0.1191 H   0  0  0  0  0  0  0  0  0  0  0  0
    0.5693   -1.5248    1.4154 H   0  0  0  0  0  0  0  0  0  0  0  0
    0.8328   -0.3647   -1.2192 H   0  0  0  0  0  0  0  0  0  0  0  0
    2.6397    0.8585   -1.2343 H   0  0  0  0  0  0  0  0  0  0  0  0
    2.9168   -0.8472   -0.7120 H   0  0  0  0  0  0  0  0  0  0  0  0
    3.6991    0.5295    0.2359 H   0  0  0  0  0  0  0  0  0  0  0  0
   -0.1078    1.8760    0.5387 H   0  0  0  0  0  0  0  0  0  0  0  0
   -0.0479    1.7175   -1.2265 H   0  0  0  0  0  0  0  0  0  0  0  0
   -2.2732    1.2942   -1.2738 H   0  0  0  0  0  0  0  0  0  0  0  0
   -2.3274    1.4832    0.4872 H   0  0  0  0  0  0  0  0  0  0  0  0
  1  2  1  0
  2  3  1  0
  3  4  1  0
  4  5  1  0
  5  6  1  0
  6  7  1  0
  5  8  1  0
  8  9  1  0
  9  2  1  0
  3 10  1  0
  3 11  1  0
  4 12  1  0
  4 13  1  0
  5 14  1  0
  7 15  1  0
  7 16  1  0
  7 17  1  0
  8 18  1  0
  8 19  1  0
  9 20  1  0
  9 21  1  0
M  END
