
     RDKit          3D

 23 24  0  0  0  0  0  0  0  0999 V2000
   -1.0888   -0.6336    1.3396 R   0  0  0  0  0  1  0  0  0  0  0  0
   -1.4619    0.0779    1.1863 N   0  0  0  0  0  0  0  0  0  0  0  0
   -2.5255   -0.1498    0.2003 C   0  0  0  0  0  0  0  0  0  0  0  0
   -1.7310   -0.6055   -1.0093 C   0  0  0  0  0  0  0  0  0  0  0  0
   -0.3744    0.0135   -0.8357 C   0  0  0  0  0  0  0  0  0  0  0  0
    0.6603   -0.9350   -0.3115 C   0  0  0  0  0  0  0  0  0  0  0  0
    1.4630   -0.1962    0.6378 N   0  0  0  0  0  0  0  0  0  0  0  0
    2.8244   -0.0397    0.2075 C   0  0  0  0  0  0  0  0  0  0  0  0
    0.7893    1.0223    0.9399 C   0  0  0  0  0  0  0  0  0  0  0  0
   -0.5757    0.9216    0.3783 C   0  0  0  0  0  0  0  0  0  0  0  0
   -3.2700   -0.8636    0.5340 H   0  0  0  0  0  0  0  0  0  0  0  0
   -2.9420    0.8577   -0.0287 H   0  0  0  0  0  0  0  0  0  0  0  0
   -2.1860   -0.1314   -1.9178 H   0  0  0  0  0  0  0  0  0  0  0  0
   -1.7245   -1.6907   -1.1368 H   0  0  0  0  0  0  0  0  0  0  0  0
   -0.0497    0.5775   -1.7107 H   0  0  0  0  0  0  0  0  0  0  0  0
    1.2515   -1.3007   -1.1782 H   0  0  0  0  0  0  0  0  0  0  0  0
    0.2336   -1.8033    0.2150 H   0  0  0  0  0  0  0  0  0  0  0  0
    3.1160   -0.7734   -0.5766 H   0  0  0  0  0  0  0  0  0  0  0  0
    3.5030   -0.2117    1.0823 H   0  0  0  0  0  0  0  0  0  0  0  0
    3.0491    1.0065   -0.1225 H   0  0  0  0  0  0  0  0  0  0  0  0
    0.8038    1.1375    2.0632 H   0  0  0  0  0  0  0  0  0  0  0  0
    1.3156    1.8730    0.4794 H   0  0  0  0  0  0  0  0  0  0  0  0
   -1.0799    1.8471    0.1372 H   0  0  0  0  0  0  0  0  0  0  0  0
  1  2  1  0
  2  3  1  0
  3  4  1  0
  4  5  1  0
  5  6  1  0
  6  7  1  0
  7  8  1  0
  7  9  1  0
  9 10  1  0
 10  2  1  0
 10  5  1  0
  3 11  1  0
  3 12  1  0
  4 13  1  0
  4 14  1  0
  5 15  1  0
  6 16  1  0
  6 17  1  0
  8 18  1  0
  8 19  1  0
  8 20  1  0
  9 21  1  0
  9 22  1  0
 10 23  1  0
M  END
