
     RDKit          3D

 22 22  0  0  0  0  0  0  0  0999 V2000
   -1.9037   -1.3914    1.1593 R   0  0  0  0  0  1  0  0  0  0  0  0
   -1.7293   -1.0234    0.5414 N   0  0  0  0  0  0  0  0  0  0  0  0
   -1.8643    0.3810    0.5873 C   0  0  0  0  0  0  0  0  0  0  0  0
   -1.1511    1.1329   -0.4965 C   0  0  0  0  0  0  0  0  0  0  0  0
    0.3078    1.2409   -0.0865 C   0  0  0  0  0  0  0  0  0  0  0  0
    1.0703    0.1279   -0.5503 N   0  0  0  0  0  0  0  0  0  0  0  0
    2.4597    0.3460   -0.1652 C   0  0  0  0  0  0  0  0  0  0  0  0
    0.6694   -1.1360   -0.0039 C   0  0  0  0  0  0  0  0  0  0  0  0
   -0.7341   -1.5354   -0.3427 C   0  0  0  0  0  0  0  0  0  0  0  0
   -1.4230    0.7387    1.5638 H   0  0  0  0  0  0  0  0  0  0  0  0
   -2.9311    0.7217    0.6330 H   0  0  0  0  0  0  0  0  0  0  0  0
   -1.2149    0.6714   -1.4897 H   0  0  0  0  0  0  0  0  0  0  0  0
   -1.6070    2.1556   -0.6053 H   0  0  0  0  0  0  0  0  0  0  0  0
    0.7036    2.1560   -0.5551 H   0  0  0  0  0  0  0  0  0  0  0  0
    0.3518    1.3890    1.0155 H   0  0  0  0  0  0  0  0  0  0  0  0
    2.8646   -0.4915    0.4389 H   0  0  0  0  0  0  0  0  0  0  0  0
    2.5645    1.2577    0.4855 H   0  0  0  0  0  0  0  0  0  0  0  0
    3.1148    0.4214   -1.0590 H   0  0  0  0  0  0  0  0  0  0  0  0
    0.8241   -1.2402    1.0772 H   0  0  0  0  0  0  0  0  0  0  0  0
    1.3418   -1.9108   -0.4788 H   0  0  0  0  0  0  0  0  0  0  0  0
   -0.9427   -1.3489   -1.4225 H   0  0  0  0  0  0  0  0  0  0  0  0
   -0.7714   -2.6625   -0.2464 H   0  0  0  0  0  0  0  0  0  0  0  0
  1  2  1  0
  2  3  1  0
  3  4  1  0
  4  5  1  0
  5  6  1  0
  6  7  1  0
  6  8  1  0
  8  9  1  0
  9  2  1  0
  3 10  1  0
  3 11  1  0
  4 12  1  0
  4 13  1  0
  5 14  1  0
  5 15  1  0
  7 16  1  0
  7 17  1  0
  7 18  1  0
  8 19  1  0
  8 20  1  0
  9 21  1  0
  9 22  1  0
M  END
