
     RDKit          3D

 22 22  0  0  0  0  0  0  0  0999 V2000
   -0.6027   -1.4563   -0.6161 R   0  0  0  0  0  1  0  0  0  0  0  0
   -1.1063   -0.9500   -0.8382 N   0  0  0  0  0  0  0  0  0  0  0  0
   -2.0681   -0.5411    0.1948 C   0  0  0  0  0  0  0  0  0  0  0  0
   -1.3732    0.4568    1.0599 C   0  0  0  0  0  0  0  0  0  0  0  0
   -0.1705    0.8524    0.2307 C   0  0  0  0  0  0  0  0  0  0  0  0
    1.0317    0.3702    0.8249 N   0  0  0  0  0  0  0  0  0  0  0  0
    1.0934   -1.0588    0.9661 C   0  0  0  0  0  0  0  0  0  0  0  0
    2.1792    0.7834    0.0374 C   0  0  0  0  0  0  0  0  0  0  0  0
   -0.4597    0.3059   -1.1312 C   0  0  0  0  0  0  0  0  0  0  0  0
   -2.9521   -0.1107   -0.3357 H   0  0  0  0  0  0  0  0  0  0  0  0
   -2.4133   -1.4269    0.7484 H   0  0  0  0  0  0  0  0  0  0  0  0
   -2.0559    1.3365    1.1721 H   0  0  0  0  0  0  0  0  0  0  0  0
   -1.0849    0.0509    2.0552 H   0  0  0  0  0  0  0  0  0  0  0  0
   -0.1233    1.9507    0.1839 H   0  0  0  0  0  0  0  0  0  0  0  0
    1.1037   -1.5709   -0.0060 H   0  0  0  0  0  0  0  0  0  0  0  0
    2.1018   -1.2754    1.4306 H   0  0  0  0  0  0  0  0  0  0  0  0
    0.3148   -1.4655    1.6441 H   0  0  0  0  0  0  0  0  0  0  0  0
    2.1363    1.8568   -0.2418 H   0  0  0  0  0  0  0  0  0  0  0  0
    2.2073    0.1613   -0.8856 H   0  0  0  0  0  0  0  0  0  0  0  0
    3.0777    0.5282    0.6389 H   0  0  0  0  0  0  0  0  0  0  0  0
    0.3871    0.2419   -1.8030 H   0  0  0  0  0  0  0  0  0  0  0  0
   -1.2231    0.9606   -1.6246 H   0  0  0  0  0  0  0  0  0  0  0  0
  1  2  1  0
  2  3  1  0
  3  4  1  0
  4  5  1  0
  5  6  1  0
  6  7  1  0
  6  8  1  0
  5  9  1  0
  9  2  1  0
  3 10  1  0
  3 11  1  0
  4 12  1  0
  4 13  1  0
  5 14  1  0
  7 15  1  0
  7 16  1  0
  7 17  1  0
  8 18  1  0
  8 19  1  0
  8 20  1  0
  9 21  1  0
  9 22  1  0
M  END
