
     RDKit          3D

 25 25  0  0  0  0  0  0  0  0999 V2000
    3.2692   -0.1801   -0.4076 R   0  0  0  0  0  1  0  0  0  0  0  0
    2.5275    0.1178   -0.4156 N   0  0  0  0  0  0  0  0  0  0  0  0
    1.6679   -0.8668   -0.9982 C   0  0  0  0  0  0  0  0  0  0  0  0
    0.2681   -0.2855   -1.0233 C   0  0  0  0  0  0  0  0  0  0  0  0
   -0.1532   -0.2588    0.4398 C   0  0  0  0  0  0  0  0  0  0  0  0
   -1.5347   -0.0444    0.5111 N   0  0  0  0  0  0  0  0  0  0  0  0
   -2.3502   -1.0322   -0.1278 C   0  0  0  0  0  0  0  0  0  0  0  0
   -2.0682    1.2349    0.3864 C   0  0  0  0  0  0  0  0  0  0  0  0
    0.7332    0.6257    1.2150 C   0  0  0  0  0  0  0  0  0  0  0  0
    2.1636    0.5902    0.8727 C   0  0  0  0  0  0  0  0  0  0  0  0
    1.6855   -1.7855   -0.3480 H   0  0  0  0  0  0  0  0  0  0  0  0
    2.0388   -1.1085   -1.9974 H   0  0  0  0  0  0  0  0  0  0  0  0
   -0.4219   -0.8678   -1.6478 H   0  0  0  0  0  0  0  0  0  0  0  0
    0.3726    0.7537   -1.4162 H   0  0  0  0  0  0  0  0  0  0  0  0
    0.0330   -1.3139    0.8084 H   0  0  0  0  0  0  0  0  0  0  0  0
   -3.3105   -1.2114    0.4246 H   0  0  0  0  0  0  0  0  0  0  0  0
   -1.7671   -1.9950   -0.1371 H   0  0  0  0  0  0  0  0  0  0  0  0
   -2.6556   -0.7645   -1.1632 H   0  0  0  0  0  0  0  0  0  0  0  0
   -2.8312    1.3908    1.2043 H   0  0  0  0  0  0  0  0  0  0  0  0
   -1.4017    2.0881    0.3560 H   0  0  0  0  0  0  0  0  0  0  0  0
   -2.6874    1.2818   -0.5587 H   0  0  0  0  0  0  0  0  0  0  0  0
    0.6269    0.3259    2.3018 H   0  0  0  0  0  0  0  0  0  0  0  0
    0.4044    1.7070    1.2244 H   0  0  0  0  0  0  0  0  0  0  0  0
    2.7497   -0.0156    1.6282 H   0  0  0  0  0  0  0  0  0  0  0  0
    2.6412    1.6141    0.9625 H   0  0  0  0  0  0  0  0  0  0  0  0
  1  2  1  0
  2  3  1  0
  3  4  1  0
  4  5  1  0
  5  6  1  0
  6  7  1  0
  6  8  1  0
  5  9  1  0
  9 10  1  0
 10  2  1  0
  3 11  1  0
  3 12  1  0
  4 13  1  0
  4 14  1  0
  5 15  1  0
  7 16  1  0
  7 17  1  0
  7 18  1  0
  8 19  1  0
  8 20  1  0
  8 21  1  0
  9 22  1  0
  9 23  1  0
 10 24  1  0
 10 25  1  0
M  END
