
     RDKit          3D

 22 22  0  0  0  0  0  0  0  0999 V2000
    2.6208   -0.5479    0.2167 R   0  0  0  0  0  1  0  0  0  0  0  0
    2.1993   -0.2145   -0.4428 N   0  0  0  0  0  0  0  0  0  0  0  0
    1.1243   -1.1519   -0.6533 C   0  0  0  0  0  0  0  0  0  0  0  0
    0.2597   -1.0504    0.5816 C   0  0  0  0  0  0  0  0  0  0  0  0
   -0.3854    0.2249    0.5950 N   0  0  0  0  0  0  0  0  0  0  0  0
   -1.4771    0.3428   -0.3311 C   0  0  0  0  0  0  0  0  0  0  0  0
   -2.6569   -0.5078    0.0671 C   0  0  0  0  0  0  0  0  0  0  0  0
    0.5361    1.3177    0.5697 C   0  0  0  0  0  0  0  0  0  0  0  0
    1.7907    1.1237   -0.1990 C   0  0  0  0  0  0  0  0  0  0  0  0
    0.5750   -0.9704   -1.5849 H   0  0  0  0  0  0  0  0  0  0  0  0
    1.5605   -2.1643   -0.6455 H   0  0  0  0  0  0  0  0  0  0  0  0
    0.9768   -1.0527    1.4468 H   0  0  0  0  0  0  0  0  0  0  0  0
   -0.4659   -1.8659    0.6864 H   0  0  0  0  0  0  0  0  0  0  0  0
   -1.7860    1.4304   -0.2997 H   0  0  0  0  0  0  0  0  0  0  0  0
   -1.1203    0.1297   -1.3324 H   0  0  0  0  0  0  0  0  0  0  0  0
   -2.6192   -0.7903    1.1458 H   0  0  0  0  0  0  0  0  0  0  0  0
   -2.6552   -1.4049   -0.5975 H   0  0  0  0  0  0  0  0  0  0  0  0
   -3.5737    0.0610   -0.1867 H   0  0  0  0  0  0  0  0  0  0  0  0
   -0.0164    2.1962    0.1398 H   0  0  0  0  0  0  0  0  0  0  0  0
    0.7373    1.6165    1.6312 H   0  0  0  0  0  0  0  0  0  0  0  0
    2.6174    1.6246    0.3709 H   0  0  0  0  0  0  0  0  0  0  0  0
    1.7582    1.6536   -1.1782 H   0  0  0  0  0  0  0  0  0  0  0  0
  1  2  1  0
  2  3  1  0
  3  4  1  0
  4  5  1  0
  5  6  1  0
  6  7  1  0
  5  8  1  0
  8  9  1  0
  9  2  1  0
  3 10  1  0
  3 11  1  0
  4 12  1  0
  4 13  1  0
  6 14  1  0
  6 15  1  0
  7 16  1  0
  7 17  1  0
  7 18  1  0
  8 19  1  0
  8 20  1  0
  9 21  1  0
  9 22  1  0
M  END
