
     RDKit          3D

 15 15  0  0  0  0  0  0  0  0999 V2000
    3.3415   -1.6952   -0.3314 R   0  0  0  0  0  1  0  0  0  0  0  0
    2.4673   -1.5534   -0.0501 N   0  0  0  0  0  0  0  0  0  0  0  0
    1.7901   -0.4254   -0.4890 C   0  0  0  0  0  0  0  0  0  0  0  0
    2.4263    0.3598   -1.2670 O   0  0  0  0  0  0  0  0  0  0  0  0
    0.4235   -0.0909   -0.1220 C   0  0  0  0  0  0  0  0  0  0  0  0
   -0.1245    1.0621   -0.6322 C   0  0  0  0  0  0  0  0  0  0  0  0
   -1.4338    1.4469   -0.3221 C   0  0  0  0  0  0  0  0  0  0  0  0
   -2.2004    0.6615    0.5116 C   0  0  0  0  0  0  0  0  0  0  0  0
   -1.6118   -0.4861    1.0011 C   0  0  0  0  0  0  0  0  0  0  0  0
   -0.3334   -0.8476    0.6891 N   0  0  0  0  0  0  0  0  0  0  0  0
    2.0539   -2.2433    0.5715 H   0  0  0  0  0  0  0  0  0  0  0  0
    0.4452    1.7115   -1.2941 H   0  0  0  0  0  0  0  0  0  0  0  0
   -1.8810    2.3500   -0.7140 H   0  0  0  0  0  0  0  0  0  0  0  0
   -3.2214    0.9131    0.7848 H   0  0  0  0  0  0  0  0  0  0  0  0
   -2.1416   -1.1632    1.6639 H   0  0  0  0  0  0  0  0  0  0  0  0
  1  2  1  0
  2  3  1  0
  3  4  2  0
  3  5  1  0
  5  6  2  0
  6  7  1  0
  7  8  2  0
  8  9  1  0
  9 10  2  0
 10  5  1  0
  2 11  1  0
  6 12  1  0
  7 13  1  0
  8 14  1  0
  9 15  1  0
M  END
