
     RDKit          3D

 13 12  0  0  0  0  0  0  0  0999 V2000
   -0.6399    1.4651    0.8189 R   0  0  0  0  0  1  0  0  0  0  0  0
   -0.5125    1.4696   -0.0052 N   0  0  0  0  0  0  0  0  0  0  0  0
   -0.0315    0.1738   -0.4355 C   0  0  0  0  0  0  0  0  0  0  0  0
   -1.0751   -0.8487   -0.0810 C   0  0  0  0  0  0  0  0  0  0  0  0
    1.2609   -0.2205    0.2179 C   0  0  0  0  0  0  0  0  0  0  0  0
    0.1469    2.2407   -0.2466 H   0  0  0  0  0  0  0  0  0  0  0  0
    0.0489    0.2166   -1.5413 H   0  0  0  0  0  0  0  0  0  0  0  0
   -0.8584   -1.2834    0.9292 H   0  0  0  0  0  0  0  0  0  0  0  0
   -2.0849   -0.4001   -0.0001 H   0  0  0  0  0  0  0  0  0  0  0  0
   -1.0118   -1.6777   -0.7992 H   0  0  0  0  0  0  0  0  0  0  0  0
    1.0793   -0.8081    1.1530 H   0  0  0  0  0  0  0  0  0  0  0  0
    1.9143    0.6206    0.4730 H   0  0  0  0  0  0  0  0  0  0  0  0
    1.7635   -0.9477   -0.4830 H   0  0  0  0  0  0  0  0  0  0  0  0
  1  2  1  0
  2  3  1  0
  3  4  1  0
  3  5  1  0
  2  6  1  0
  3  7  1  0
  4  8  1  0
  4  9  1  0
  4 10  1  0
  5 11  1  0
  5 12  1  0
  5 13  1  0
M  END
