
     RDKit          3D

 16 16  0  0  0  0  0  0  0  0999 V2000
   -3.6026   -0.8194   -0.0876 R   0  0  0  0  0  1  0  0  0  0  0  0
   -2.7308   -0.8653    0.0402 N   0  0  0  0  0  0  0  0  0  0  0  0
   -1.8864    0.1857   -0.3144 C   0  0  0  0  0  0  0  0  0  0  0  0
   -2.4330    1.2125   -0.8305 O   0  0  0  0  0  0  0  0  0  0  0  0
   -0.4406    0.1623   -0.1253 C   0  0  0  0  0  0  0  0  0  0  0  0
    0.3127    1.2517   -0.5081 C   0  0  0  0  0  0  0  0  0  0  0  0
    1.6844    1.2756   -0.3489 C   0  0  0  0  0  0  0  0  0  0  0  0
    2.3453    0.1882    0.2078 C   0  0  0  0  0  0  0  0  0  0  0  0
    1.6002   -0.9009    0.5914 C   0  0  0  0  0  0  0  0  0  0  0  0
    0.2108   -0.9005    0.4194 C   0  0  0  0  0  0  0  0  0  0  0  0
   -2.3314   -1.7229    0.4643 H   0  0  0  0  0  0  0  0  0  0  0  0
   -0.2034    2.1127   -0.9480 H   0  0  0  0  0  0  0  0  0  0  0  0
    2.2731    2.1472   -0.6568 H   0  0  0  0  0  0  0  0  0  0  0  0
    3.4271    0.2158    0.3295 H   0  0  0  0  0  0  0  0  0  0  0  0
    2.0889   -1.7607    1.0274 H   0  0  0  0  0  0  0  0  0  0  0  0
   -0.3142   -1.7820    0.7396 H   0  0  0  0  0  0  0  0  0  0  0  0
  1  2  1  0
  2  3  1  0
  3  4  2  0
  3  5  1  0
  5  6  2  0
  6  7  1  0
  7  8  2  0
  8  9  1  0
  9 10  2  0
 10  5  1  0
  2 11  1  0
  6 12  1  0
  7 13  1  0
  8 14  1  0
  9 15  1  0
 10 16  1  0
M  END
