
     RDKit          3D

 13 13  0  0  0  0  0  0  0  0999 V2000
    3.1976    0.1615   -0.0053 R   0  0  0  0  0  1  0  0  0  0  0  0
    2.4122    0.3334   -0.0185 N   0  0  0  0  0  0  0  0  0  0  0  0
    1.5090   -0.7473    0.0538 C   0  0  0  0  0  0  0  0  0  0  0  0
    1.8649   -1.9556    0.1370 O   0  0  0  0  0  0  0  0  0  0  0  0
    0.0537   -0.4715    0.0323 C   0  0  0  0  0  0  0  0  0  0  0  0
   -0.5160    0.7788   -0.0541 C   0  0  0  0  0  0  0  0  0  0  0  0
   -1.8869    0.6430   -0.0473 C   0  0  0  0  0  0  0  0  0  0  0  0
   -2.0787   -0.7189    0.0454 C   0  0  0  0  0  0  0  0  0  0  0  0
   -0.9217   -1.3217    0.0887 O   0  0  0  0  0  0  0  0  0  0  0  0
    2.0748    1.3272   -0.0870 H   0  0  0  0  0  0  0  0  0  0  0  0
    0.0099    1.7294   -0.1182 H   0  0  0  0  0  0  0  0  0  0  0  0
   -2.6427    1.4223   -0.1019 H   0  0  0  0  0  0  0  0  0  0  0  0
   -3.0760   -1.1805    0.0752 H   0  0  0  0  0  0  0  0  0  0  0  0
  1  2  1  0
  2  3  1  0
  3  4  2  0
  3  5  1  0
  5  6  2  0
  6  7  1  0
  7  8  2  0
  8  9  1  0
  9  5  1  0
  2 10  1  0
  6 11  1  0
  7 12  1  0
  8 13  1  0
M  END
