
     RDKit          3D

 10  9  0  0  0  0  0  0  0  0999 V2000
    2.4911   -0.4284    0.1121 R   0  0  0  0  0  1  0  0  0  0  0  0
    1.8465   -0.0868    0.4338 N   0  0  0  0  0  0  0  0  0  0  0  0
    0.6226   -0.2951   -0.2578 C   0  0  0  0  0  0  0  0  0  0  0  0
    0.5812   -0.9879   -1.3232 O   0  0  0  0  0  0  0  0  0  0  0  0
   -0.6094    0.2848    0.2461 C   0  0  0  0  0  0  0  0  0  0  0  0
   -1.7575    0.1044   -0.3797 C   0  0  0  0  0  0  0  0  0  0  0  0
    1.8758    0.4856    1.3126 H   0  0  0  0  0  0  0  0  0  0  0  0
   -0.6032    0.8723    1.1408 H   0  0  0  0  0  0  0  0  0  0  0  0
   -1.7707   -0.4824   -1.2754 H   0  0  0  0  0  0  0  0  0  0  0  0
   -2.6764    0.5334   -0.0092 H   0  0  0  0  0  0  0  0  0  0  0  0
  1  2  1  0
  2  3  1  0
  3  4  2  0
  3  5  1  0
  5  6  2  3
  2  7  1  0
  5  8  1  0
  6  9  1  0
  6 10  1  0
M  END
