
     RDKit          3D

 15 15  0  0  0  0  0  0  0  0999 V2000
    3.3827   -0.4340   -0.0599 R   0  0  0  0  0  1  0  0  0  0  0  0
    2.5687   -0.5879    0.0044 N   0  0  0  0  0  0  0  0  0  0  0  0
    1.7400    0.5427   -0.1787 C   0  0  0  0  0  0  0  0  0  0  0  0
    2.2624    1.6840   -0.4214 O   0  0  0  0  0  0  0  0  0  0  0  0
    0.3040    0.3726   -0.0849 C   0  0  0  0  0  0  0  0  0  0  0  0
   -0.3168   -0.8286    0.1735 C   0  0  0  0  0  0  0  0  0  0  0  0
   -1.6933   -0.9699    0.2593 C   0  0  0  0  0  0  0  0  0  0  0  0
   -2.4790    0.1456    0.0772 C   0  0  0  0  0  0  0  0  0  0  0  0
   -1.8980    1.3326   -0.1768 N   0  0  0  0  0  0  0  0  0  0  0  0
   -0.5643    1.4593   -0.2579 C   0  0  0  0  0  0  0  0  0  0  0  0
    2.2603   -1.5564    0.2046 H   0  0  0  0  0  0  0  0  0  0  0  0
    0.2770   -1.7180    0.3201 H   0  0  0  0  0  0  0  0  0  0  0  0
   -2.1597   -1.9205    0.4627 H   0  0  0  0  0  0  0  0  0  0  0  0
   -3.5715    0.0447    0.1431 H   0  0  0  0  0  0  0  0  0  0  0  0
   -0.1125    2.4338   -0.4653 H   0  0  0  0  0  0  0  0  0  0  0  0
  1  2  1  0
  2  3  1  0
  3  4  2  0
  3  5  1  0
  5  6  2  0
  6  7  1  0
  7  8  2  0
  8  9  1  0
  9 10  2  0
 10  5  1  0
  2 11  1  0
  6 12  1  0
  7 13  1  0
  8 14  1  0
 10 15  1  0
M  END
