
     RDKit          3D

 12 11  0  0  0  0  0  0  0  0999 V2000
    2.7766    0.0545    0.3333 R   0  0  0  0  0  1  0  0  0  0  0  0
    2.0943   -0.1436   -0.1500 N   0  0  0  0  0  0  0  0  0  0  0  0
    0.8114    0.1397    0.3589 C   0  0  0  0  0  0  0  0  0  0  0  0
    0.6203    0.6720    1.4941 O   0  0  0  0  0  0  0  0  0  0  0  0
   -0.3475   -0.1976   -0.4638 C   0  0  0  0  0  0  0  0  0  0  0  0
   -1.6281    0.1795    0.2477 C   0  0  0  0  0  0  0  0  0  0  0  0
    2.2010   -0.5747   -1.0731 H   0  0  0  0  0  0  0  0  0  0  0  0
   -0.3262    0.2339   -1.4838 H   0  0  0  0  0  0  0  0  0  0  0  0
   -0.3481   -1.3201   -0.5867 H   0  0  0  0  0  0  0  0  0  0  0  0
   -2.2009    0.9273   -0.3692 H   0  0  0  0  0  0  0  0  0  0  0  0
   -1.4098    0.7335    1.2046 H   0  0  0  0  0  0  0  0  0  0  0  0
   -2.2430   -0.7044    0.4880 H   0  0  0  0  0  0  0  0  0  0  0  0
  1  2  1  0
  2  3  1  0
  3  4  2  0
  3  5  1  0
  5  6  1  0
  2  7  1  0
  5  8  1  0
  5  9  1  0
  6 10  1  0
  6 11  1  0
  6 12  1  0
M  END
