
     RDKit          3D

 15 15  0  0  0  0  0  0  0  0999 V2000
    3.3854    0.2134    0.2315 R   0  0  0  0  0  1  0  0  0  0  0  0
    2.5605    0.4113    0.0251 N   0  0  0  0  0  0  0  0  0  0  0  0
    1.5619   -0.4733    0.4498 C   0  0  0  0  0  0  0  0  0  0  0  0
    1.9057   -1.4931    1.0983 O   0  0  0  0  0  0  0  0  0  0  0  0
    0.1644   -0.2125    0.1450 C   0  0  0  0  0  0  0  0  0  0  0  0
   -0.2655    0.8887   -0.5613 C   0  0  0  0  0  0  0  0  0  0  0  0
   -1.6155    1.1273   -0.8479 C   0  0  0  0  0  0  0  0  0  0  0  0
   -2.4885    0.2135   -0.3924 N   0  0  0  0  0  0  0  0  0  0  0  0
   -2.0892   -0.8507    0.2885 C   0  0  0  0  0  0  0  0  0  0  0  0
   -0.7762   -1.1330    0.5973 C   0  0  0  0  0  0  0  0  0  0  0  0
    2.4078    1.2832   -0.5143 H   0  0  0  0  0  0  0  0  0  0  0  0
    0.4575    1.6103   -0.9175 H   0  0  0  0  0  0  0  0  0  0  0  0
   -1.8947    2.0077   -1.4058 H   0  0  0  0  0  0  0  0  0  0  0  0
   -2.8302   -1.5723    0.6428 H   0  0  0  0  0  0  0  0  0  0  0  0
   -0.4834   -2.0206    1.1609 H   0  0  0  0  0  0  0  0  0  0  0  0
  1  2  1  0
  2  3  1  0
  3  4  2  0
  3  5  1  0
  5  6  2  0
  6  7  1  0
  7  8  2  0
  8  9  1  0
  9 10  2  0
 10  5  1  0
  2 11  1  0
  6 12  1  0
  7 13  1  0
  9 14  1  0
 10 15  1  0
M  END
