
     RDKit          3D

 13 13  0  0  0  0  0  0  0  0999 V2000
    2.7993    0.2227   -0.1841 R   0  0  0  0  0  1  0  0  0  0  0  0
    1.7538    0.4014   -0.1346 N   0  0  0  0  0  0  0  0  0  0  0  0
    1.0563   -0.7279    0.1598 C   0  0  0  0  0  0  0  0  0  0  0  0
    1.6771   -1.8323    0.3394 O   0  0  0  0  0  0  0  0  0  0  0  0
   -0.4300   -0.6804    0.2734 C   0  0  0  0  0  0  0  0  0  0  0  0
   -1.2074    0.1078   -0.7651 C   0  0  0  0  0  0  0  0  0  0  0  0
   -1.1033    0.5754    0.6512 C   0  0  0  0  0  0  0  0  0  0  0  0
    1.5766    1.3209   -0.3125 H   0  0  0  0  0  0  0  0  0  0  0  0
   -0.8855   -1.6539    0.5151 H   0  0  0  0  0  0  0  0  0  0  0  0
   -0.5889    0.5793   -1.5383 H   0  0  0  0  0  0  0  0  0  0  0  0
   -2.1959   -0.3009   -1.1102 H   0  0  0  0  0  0  0  0  0  0  0  0
   -0.4902    1.4926    0.7867 H   0  0  0  0  0  0  0  0  0  0  0  0
   -1.9619    0.4953    1.3191 H   0  0  0  0  0  0  0  0  0  0  0  0
  1  2  1  0
  2  3  1  0
  3  4  2  0
  3  5  1  0
  5  6  1  0
  6  7  1  0
  7  5  1  0
  2  8  1  0
  5  9  1  0
  6 10  1  0
  6 11  1  0
  7 12  1  0
  7 13  1  0
M  END
