
     RDKit          3D

 13 13  0  0  0  0  0  0  0  0999 V2000
   -3.3254    0.3140   -0.1573 R   0  0  0  0  0  1  0  0  0  0  0  0
   -2.4956    0.3992   -0.1018 N   0  0  0  0  0  0  0  0  0  0  0  0
   -1.6416   -0.7280   -0.1655 C   0  0  0  0  0  0  0  0  0  0  0  0
   -2.0848   -1.8852   -0.3058 O   0  0  0  0  0  0  0  0  0  0  0  0
   -0.1763   -0.5229   -0.0620 C   0  0  0  0  0  0  0  0  0  0  0  0
    0.4972    0.6524    0.0931 C   0  0  0  0  0  0  0  0  0  0  0  0
    1.8455    0.5865    0.1630 C   0  0  0  0  0  0  0  0  0  0  0  0
    2.4119   -0.6557    0.0715 C   0  0  0  0  0  0  0  0  0  0  0  0
    1.0686   -1.6856   -0.1072 S   0  0  0  0  0  0  0  0  0  0  0  0
   -2.0739    1.3450    0.0163 H   0  0  0  0  0  0  0  0  0  0  0  0
   -0.0382    1.6291    0.1600 H   0  0  0  0  0  0  0  0  0  0  0  0
    2.5270    1.4670    0.2893 H   0  0  0  0  0  0  0  0  0  0  0  0
    3.4856   -0.9158    0.1065 H   0  0  0  0  0  0  0  0  0  0  0  0
  1  2  1  0
  2  3  1  0
  3  4  2  0
  3  5  1  0
  5  6  2  0
  6  7  1  0
  7  8  2  0
  8  9  1  0
  9  5  1  0
  2 10  1  0
  6 11  1  0
  7 12  1  0
  8 13  1  0
M  END
