
     RDKit          3D

 13 12  0  0  0  0  0  0  0  0999 V2000
    2.9557    1.1590   -0.5917 R   0  0  0  0  0  1  0  0  0  0  0  0
    2.6018    0.5510   -0.2217 N   0  0  0  0  0  0  0  0  0  0  0  0
    1.2036    0.3506   -0.4890 C   0  0  0  0  0  0  0  0  0  0  0  0
    0.6010    1.1222   -1.2779 O   0  0  0  0  0  0  0  0  0  0  0  0
    0.5103   -0.6750    0.1059 O   0  0  0  0  0  0  0  0  0  0  0  0
   -0.8589   -0.9389   -0.1027 C   0  0  0  0  0  0  0  0  0  0  0  0
   -1.7593    0.1800    0.2807 C   0  0  0  0  0  0  0  0  0  0  0  0
    3.0755   -0.1100    0.4413 H   0  0  0  0  0  0  0  0  0  0  0  0
   -1.0683   -1.2769   -1.1544 H   0  0  0  0  0  0  0  0  0  0  0  0
   -1.1254   -1.8253    0.5363 H   0  0  0  0  0  0  0  0  0  0  0  0
   -2.3927   -0.0557    1.1863 H   0  0  0  0  0  0  0  0  0  0  0  0
   -2.5225    0.4148   -0.5171 H   0  0  0  0  0  0  0  0  0  0  0  0
   -1.2209    1.1042    0.5314 H   0  0  0  0  0  0  0  0  0  0  0  0
  1  2  1  0
  2  3  1  0
  3  4  2  0
  3  5  1  0
  5  6  1  0
  6  7  1  0
  2  8  1  0
  6  9  1  0
  6 10  1  0
  7 11  1  0
  7 12  1  0
  7 13  1  0
M  END
