
     RDKit          3D

 17 16  0  0  0  0  0  0  0  0999 V2000
    0.9094   -1.8767   -0.9196 R   0  0  0  0  0  1  0  0  0  0  0  0
    0.1849   -1.5174   -1.0604 N   0  0  0  0  0  0  0  0  0  0  0  0
   -0.0445   -0.6101    0.0720 C   0  0  0  0  0  0  0  0  0  0  0  0
   -1.6183    0.1972   -0.1942 P   0  0  0  0  0  5  0  0  0  0  0  0
   -1.7394    0.6120   -1.6443 O   0  0  0  0  0  0  0  0  0  0  0  0
   -2.8306   -0.9729    0.1145 O   0  0  0  0  0  0  0  0  0  0  0  0
   -1.9107    1.5048    0.7736 O   0  0  0  0  0  0  0  0  0  0  0  0
    1.3500    0.4953    0.1777 P   0  0  0  0  0  5  0  0  0  0  0  0
    2.2145    0.4149   -1.0852 O   0  0  0  0  0  0  0  0  0  0  0  0
    2.3738    0.0154    1.4591 O   0  0  0  0  0  0  0  0  0  0  0  0
    0.9408    2.1011    0.3902 O   0  0  0  0  0  0  0  0  0  0  0  0
    0.3767   -0.9257   -1.9242 H   0  0  0  0  0  0  0  0  0  0  0  0
   -0.1216   -1.2448    0.9678 H   0  0  0  0  0  0  0  0  0  0  0  0
   -2.5000   -1.8868   -0.1578 H   0  0  0  0  0  0  0  0  0  0  0  0
   -1.1856    1.8201    1.3276 H   0  0  0  0  0  0  0  0  0  0  0  0
    2.1094   -0.8381    1.8456 H   0  0  0  0  0  0  0  0  0  0  0  0
    1.4912    2.7117   -0.1424 H   0  0  0  0  0  0  0  0  0  0  0  0
  1  2  1  0
  2  3  1  0
  3  4  1  0
  4  5  2  0
  4  6  1  0
  4  7  1  0
  3  8  1  0
  8  9  2  0
  8 10  1  0
  8 11  1  0
  2 12  1  0
  3 13  1  0
  6 14  1  0
  7 15  1  0
 10 16  1  0
 11 17  1  0
M  END
