
     RDKit          3D

 19 18  0  0  0  0  0  0  0  0999 V2000
    3.9292   -0.5942   -0.1128 R   0  0  0  0  0  1  0  0  0  0  0  0
    3.1755    0.2121   -0.0722 N   0  0  0  0  0  0  0  0  0  0  0  0
    1.9229   -0.3211   -0.0212 C   0  0  0  0  0  0  0  0  0  0  0  0
    1.7080   -1.5509   -0.0223 O   0  0  0  0  0  0  0  0  0  0  0  0
    0.7783    0.4334    0.0364 O   0  0  0  0  0  0  0  0  0  0  0  0
   -0.5126    0.1189    0.0915 C   0  0  0  0  0  0  0  0  0  0  0  0
   -1.1080   -0.6773    1.1740 C   0  0  0  0  0  0  0  0  0  0  0  0
   -1.2753    1.4647    0.0527 C   0  0  0  0  0  0  0  0  0  0  0  0
   -0.8992   -0.5388   -1.2480 C   0  0  0  0  0  0  0  0  0  0  0  0
    3.5779    1.0657   -0.0825 H   0  0  0  0  0  0  0  0  0  0  0  0
   -1.8751   -1.3892    0.7958 H   0  0  0  0  0  0  0  0  0  0  0  0
   -0.4235   -1.2732    1.7911 H   0  0  0  0  0  0  0  0  0  0  0  0
   -1.6749   -0.0368    1.9099 H   0  0  0  0  0  0  0  0  0  0  0  0
   -0.7491    2.1997   -0.5640 H   0  0  0  0  0  0  0  0  0  0  0  0
   -1.2087    1.8356    1.1171 H   0  0  0  0  0  0  0  0  0  0  0  0
   -2.3294    1.3122   -0.2001 H   0  0  0  0  0  0  0  0  0  0  0  0
   -0.1345   -0.3925   -2.0054 H   0  0  0  0  0  0  0  0  0  0  0  0
   -0.9879   -1.6496   -1.0760 H   0  0  0  0  0  0  0  0  0  0  0  0
   -1.9138   -0.2188   -1.5641 H   0  0  0  0  0  0  0  0  0  0  0  0
  1  2  1  0
  2  3  1  0
  3  4  2  0
  3  5  1  0
  5  6  1  0
  6  7  1  0
  6  8  1  0
  6  9  1  0
  2 10  1  0
  7 11  1  0
  7 12  1  0
  7 13  1  0
  8 14  1  0
  8 15  1  0
  8 16  1  0
  9 17  1  0
  9 18  1  0
  9 19  1  0
M  END
