
     RDKit          3D

  7  6  0  0  0  0  0  0  0  0999 V2000
    1.1629   -0.7176    0.0339 R   0  0  0  0  0  1  0  0  0  0  0  0
    0.8524   -0.0988   -0.3544 N   0  0  0  0  0  0  0  0  0  0  0  0
   -0.5538   -0.0191    0.0100 C   0  0  0  0  0  0  0  0  0  0  0  0
    1.2993    0.7517    0.0751 H   0  0  0  0  0  0  0  0  0  0  0  0
   -1.1455   -0.7007   -0.6363 H   0  0  0  0  0  0  0  0  0  0  0  0
   -0.9532    1.0096   -0.2126 H   0  0  0  0  0  0  0  0  0  0  0  0
   -0.6620   -0.2251    1.0844 H   0  0  0  0  0  0  0  0  0  0  0  0
  1  2  1  0
  2  3  1  0
  2  4  1  0
  3  5  1  0
  3  6  1  0
  3  7  1  0
M  END
