
     RDKit          3D

 14 14  0  0  0  0  0  0  0  0999 V2000
    2.8296   -0.5734    0.1986 R   0  0  0  0  0  1  0  0  0  0  0  0
    2.3101    0.1342    0.2455 N   0  0  0  0  0  0  0  0  0  0  0  0
    0.9228   -0.0113    0.0891 C   0  0  0  0  0  0  0  0  0  0  0  0
    0.2840   -1.2045   -0.1387 C   0  0  0  0  0  0  0  0  0  0  0  0
   -1.1094   -1.2288   -0.2790 C   0  0  0  0  0  0  0  0  0  0  0  0
   -1.8673   -0.0839   -0.1951 C   0  0  0  0  0  0  0  0  0  0  0  0
   -3.2248   -0.1154   -0.3328 F   0  0  0  0  0  0  0  0  0  0  0  0
   -1.2284    1.1090    0.0327 C   0  0  0  0  0  0  0  0  0  0  0  0
    0.1418    1.1188    0.1687 C   0  0  0  0  0  0  0  0  0  0  0  0
    2.8357    0.9971    0.4166 H   0  0  0  0  0  0  0  0  0  0  0  0
    0.8803   -2.0955   -0.2034 H   0  0  0  0  0  0  0  0  0  0  0  0
   -1.5980   -2.1912   -0.4601 H   0  0  0  0  0  0  0  0  0  0  0  0
   -1.8065    2.0494    0.1060 H   0  0  0  0  0  0  0  0  0  0  0  0
    0.6301    2.0954    0.3518 H   0  0  0  0  0  0  0  0  0  0  0  0
  1  2  1  0
  2  3  1  0
  3  4  2  0
  4  5  1  0
  5  6  2  0
  6  7  1  0
  6  8  1  0
  8  9  2  0
  9  3  1  0
  2 10  1  0
  4 11  1  0
  5 12  1  0
  8 13  1  0
  9 14  1  0
M  END
