
     RDKit          3D

 18 18  0  0  0  0  0  0  0  0999 V2000
    0.1729   -2.5133   -1.0229 R   0  0  0  0  0  1  0  0  0  0  0  0
    0.3199   -2.2465   -0.2404 N   0  0  0  0  0  0  0  0  0  0  0  0
    0.6349   -0.8764   -0.1445 C   0  0  0  0  0  0  0  0  0  0  0  0
    1.9524   -0.4756   -0.2293 C   0  0  0  0  0  0  0  0  0  0  0  0
    2.2949    0.8560   -0.1394 C   0  0  0  0  0  0  0  0  0  0  0  0
    1.2680    1.7601    0.0376 C   0  0  0  0  0  0  0  0  0  0  0  0
   -0.0460    1.3520    0.1214 C   0  0  0  0  0  0  0  0  0  0  0  0
   -0.4071    0.0168    0.0329 C   0  0  0  0  0  0  0  0  0  0  0  0
   -1.7935   -0.4152    0.1211 C   0  0  0  0  0  0  0  0  0  0  0  0
   -2.8614    0.4841    0.3015 N   0  0  0  0  0  0  0  0  0  0  0  0
   -2.0303   -1.6414    0.0311 O   0  0  0  0  0  0  0  0  0  0  0  0
    0.2707   -2.8804    0.5756 H   0  0  0  0  0  0  0  0  0  0  0  0
    2.7625   -1.1833   -0.3684 H   0  0  0  0  0  0  0  0  0  0  0  0
    3.3271    1.1993   -0.2031 H   0  0  0  0  0  0  0  0  0  0  0  0
    1.5284    2.8117    0.1095 H   0  0  0  0  0  0  0  0  0  0  0  0
   -0.8393    2.0789    0.2606 H   0  0  0  0  0  0  0  0  0  0  0  0
   -3.0083    0.9697    1.2112 H   0  0  0  0  0  0  0  0  0  0  0  0
   -3.5457    0.7038   -0.4544 H   0  0  0  0  0  0  0  0  0  0  0  0
  1  2  1  0
  2  3  1  0
  3  4  2  0
  4  5  1  0
  5  6  2  0
  6  7  1  0
  7  8  2  0
  8  9  1  0
  9 10  1  0
  9 11  2  0
  8  3  1  0
  2 12  1  0
  4 13  1  0
  5 14  1  0
  6 15  1  0
  7 16  1  0
 10 17  1  0
 10 18  1  0
M  END
