
     RDKit          3D

 18 18  0  0  0  0  0  0  0  0999 V2000
   -3.6114    0.9619   -0.5270 R   0  0  0  0  0  1  0  0  0  0  0  0
   -3.2675   -0.0482   -0.1677 N   0  0  0  0  0  0  0  0  0  0  0  0
   -1.9326   -0.0322    0.0456 C   0  0  0  0  0  0  0  0  0  0  0  0
   -1.3448    0.1666    1.3030 C   0  0  0  0  0  0  0  0  0  0  0  0
    0.0042    0.1974    1.4875 C   0  0  0  0  0  0  0  0  0  0  0  0
    0.8943    0.0350    0.4483 C   0  0  0  0  0  0  0  0  0  0  0  0
    2.2714    0.0738    0.6718 O   0  0  0  0  0  0  0  0  0  0  0  0
    3.1952   -0.0848   -0.3770 C   0  0  0  0  0  0  0  0  0  0  0  0
    0.3556   -0.1640   -0.8010 C   0  0  0  0  0  0  0  0  0  0  0  0
   -0.9916   -0.1968   -0.9946 C   0  0  0  0  0  0  0  0  0  0  0  0
   -4.0603   -0.5377   -0.1449 H   0  0  0  0  0  0  0  0  0  0  0  0
   -2.0560    0.2980    2.1265 H   0  0  0  0  0  0  0  0  0  0  0  0
    0.4079    0.3562    2.4860 H   0  0  0  0  0  0  0  0  0  0  0  0
    3.3633    0.8972   -0.9159 H   0  0  0  0  0  0  0  0  0  0  0  0
    2.9241   -0.8996   -1.0745 H   0  0  0  0  0  0  0  0  0  0  0  0
    4.2060   -0.3726    0.0419 H   0  0  0  0  0  0  0  0  0  0  0  0
    1.0609   -0.2957   -1.6126 H   0  0  0  0  0  0  0  0  0  0  0  0
   -1.4186   -0.3544   -1.9953 H   0  0  0  0  0  0  0  0  0  0  0  0
  1  2  1  0
  2  3  1  0
  3  4  2  0
  4  5  1  0
  5  6  2  0
  6  7  1  0
  7  8  1  0
  6  9  1  0
  9 10  2  0
 10  3  1  0
  2 11  1  0
  4 12  1  0
  5 13  1  0
  8 14  1  0
  8 15  1  0
  8 16  1  0
  9 17  1  0
 10 18  1  0
M  END
