
     RDKit          3D

 13 13  0  0  0  0  0  0  0  0999 V2000
    2.5321    0.3236    0.8672 R   0  0  0  0  0  1  0  0  0  0  0  0
    2.1327    0.2975   -0.0133 N   0  0  0  0  0  0  0  0  0  0  0  0
    0.7636    0.0294   -0.0169 C   0  0  0  0  0  0  0  0  0  0  0  0
   -0.1803    1.0440    0.0573 C   0  0  0  0  0  0  0  0  0  0  0  0
   -1.4986    0.6840    0.0467 C   0  0  0  0  0  0  0  0  0  0  0  0
   -1.9248   -0.6148   -0.0327 C   0  0  0  0  0  0  0  0  0  0  0  0
   -0.9762   -1.5626   -0.1026 N   0  0  0  0  0  0  0  0  0  0  0  0
    0.3243   -1.2866   -0.0973 C   0  0  0  0  0  0  0  0  0  0  0  0
    2.8014    0.4711   -0.7400 H   0  0  0  0  0  0  0  0  0  0  0  0
    0.1650    2.0717    0.1202 H   0  0  0  0  0  0  0  0  0  0  0  0
   -2.2542    1.4551    0.1034 H   0  0  0  0  0  0  0  0  0  0  0  0
   -2.9842   -0.8397   -0.0372 H   0  0  0  0  0  0  0  0  0  0  0  0
    1.0992   -2.0728   -0.1548 H   0  0  0  0  0  0  0  0  0  0  0  0
  1  2  1  0
  2  3  1  0
  3  4  2  0
  4  5  1  0
  5  6  2  0
  6  7  1  0
  7  8  2  0
  8  3  1  0
  2  9  1  0
  4 10  1  0
  5 11  1  0
  6 12  1  0
  8 13  1  0
M  END
