
     RDKit          3D

 20 20  0  0  0  0  0  0  0  0999 V2000
    1.9696   -0.0825    1.2803 R   0  0  0  0  0  1  0  0  0  0  0  0
    2.1344    0.0563    0.6622 N   0  0  0  0  0  0  0  0  0  0  0  0
    1.1271    0.1745   -0.4102 C   0  0  0  0  0  0  0  0  0  0  0  0
    0.4395   -1.1563   -0.4788 C   0  0  0  0  0  0  0  0  0  0  0  0
   -0.7012   -1.2419    0.5061 C   0  0  0  0  0  0  0  0  0  0  0  0
   -1.7021   -0.2098    0.0774 C   0  0  0  0  0  0  0  0  0  0  0  0
   -1.1698    1.1740   -0.0162 C   0  0  0  0  0  0  0  0  0  0  0  0
    0.2665    1.3506   -0.2272 C   0  0  0  0  0  0  0  0  0  0  0  0
    3.0324   -0.3327    0.2971 H   0  0  0  0  0  0  0  0  0  0  0  0
    1.7512    0.2468   -1.3517 H   0  0  0  0  0  0  0  0  0  0  0  0
    1.1710   -1.9487   -0.2224 H   0  0  0  0  0  0  0  0  0  0  0  0
    0.0901   -1.3569   -1.4998 H   0  0  0  0  0  0  0  0  0  0  0  0
   -0.3750   -1.0365    1.5233 H   0  0  0  0  0  0  0  0  0  0  0  0
   -1.1741   -2.2390    0.3825 H   0  0  0  0  0  0  0  0  0  0  0  0
   -2.5617   -0.2761    0.7822 H   0  0  0  0  0  0  0  0  0  0  0  0
   -2.1328   -0.5287   -0.9178 H   0  0  0  0  0  0  0  0  0  0  0  0
   -1.7820    1.6955   -0.8151 H   0  0  0  0  0  0  0  0  0  0  0  0
   -1.5042    1.7087    0.9256 H   0  0  0  0  0  0  0  0  0  0  0  0
    0.7046    1.9657    0.6184 H   0  0  0  0  0  0  0  0  0  0  0  0
    0.4165    2.0372   -1.1159 H   0  0  0  0  0  0  0  0  0  0  0  0
  1  2  1  0
  2  3  1  0
  3  4  1  0
  4  5  1  0
  5  6  1  0
  6  7  1  0
  7  8  1  0
  8  3  1  0
  2  9  1  0
  3 10  1  0
  4 11  1  0
  4 12  1  0
  5 13  1  0
  5 14  1  0
  6 15  1  0
  6 16  1  0
  7 17  1  0
  7 18  1  0
  8 19  1  0
  8 20  1  0
M  END
