
     RDKit          3D

 17 17  0  0  0  0  0  0  0  0999 V2000
   -3.4652   -0.5700   -0.4990 R   0  0  0  0  0  1  0  0  0  0  0  0
   -3.0220   -0.2079    0.1076 N   0  0  0  0  0  0  0  0  0  0  0  0
   -1.6042   -0.1213    0.0464 C   0  0  0  0  0  0  0  0  0  0  0  0
   -0.8777    0.4793    1.0540 C   0  0  0  0  0  0  0  0  0  0  0  0
    0.4998    0.5745    1.0152 C   0  0  0  0  0  0  0  0  0  0  0  0
    1.2232    0.0679   -0.0450 C   0  0  0  0  0  0  0  0  0  0  0  0
    2.7136    0.1627   -0.1026 C   0  0  0  0  0  0  0  0  0  0  0  0
    0.4951   -0.5319   -1.0511 C   0  0  0  0  0  0  0  0  0  0  0  0
   -0.8806   -0.6279   -1.0139 C   0  0  0  0  0  0  0  0  0  0  0  0
   -3.5968    0.1605    0.8865 H   0  0  0  0  0  0  0  0  0  0  0  0
   -1.4532    0.8838    1.9003 H   0  0  0  0  0  0  0  0  0  0  0  0
    1.0596    1.0459    1.8078 H   0  0  0  0  0  0  0  0  0  0  0  0
    3.0957    0.2722    0.9233 H   0  0  0  0  0  0  0  0  0  0  0  0
    3.1588   -0.6622   -0.6740 H   0  0  0  0  0  0  0  0  0  0  0  0
    3.0022    1.1146   -0.6398 H   0  0  0  0  0  0  0  0  0  0  0  0
    1.0794   -0.9289   -1.8846 H   0  0  0  0  0  0  0  0  0  0  0  0
   -1.4277   -1.1114   -1.8311 H   0  0  0  0  0  0  0  0  0  0  0  0
  1  2  1  0
  2  3  1  0
  3  4  2  0
  4  5  1  0
  5  6  2  0
  6  7  1  0
  6  8  1  0
  8  9  2  0
  9  3  1  0
  2 10  1  0
  4 11  1  0
  5 12  1  0
  7 13  1  0
  7 14  1  0
  7 15  1  0
  8 16  1  0
  9 17  1  0
M  END
