
     RDKit          3D

 16 16  0  0  0  0  0  0  0  0999 V2000
   -2.2741    0.3267   -1.1738 R   0  0  0  0  0  1  0  0  0  0  0  0
   -2.3294   -0.6176   -0.8495 N   0  0  0  0  0  0  0  0  0  0  0  0
   -1.5213   -0.4715    0.3448 C   0  0  0  0  0  0  0  0  0  0  0  0
   -0.1516   -0.0266    0.0551 C   0  0  0  0  0  0  0  0  0  0  0  0
    0.8410   -0.9594   -0.1782 C   0  0  0  0  0  0  0  0  0  0  0  0
    2.1020   -0.4875   -0.4437 C   0  0  0  0  0  0  0  0  0  0  0  0
    2.3982    0.8613   -0.4831 C   0  0  0  0  0  0  0  0  0  0  0  0
    1.4166    1.7512   -0.2531 N   0  0  0  0  0  0  0  0  0  0  0  0
    0.1661    1.3272    0.0111 C   0  0  0  0  0  0  0  0  0  0  0  0
   -3.3509   -0.5238   -0.6389 H   0  0  0  0  0  0  0  0  0  0  0  0
   -2.0452    0.2350    1.0366 H   0  0  0  0  0  0  0  0  0  0  0  0
   -1.4820   -1.4465    0.8212 H   0  0  0  0  0  0  0  0  0  0  0  0
    0.5977   -2.0276   -0.1451 H   0  0  0  0  0  0  0  0  0  0  0  0
    2.8820   -1.1960   -0.6266 H   0  0  0  0  0  0  0  0  0  0  0  0
    3.3982    1.2127   -0.6942 H   0  0  0  0  0  0  0  0  0  0  0  0
   -0.6473    2.0424    0.2013 H   0  0  0  0  0  0  0  0  0  0  0  0
  1  2  1  0
  2  3  1  0
  3  4  1  0
  4  5  2  0
  5  6  1  0
  6  7  2  0
  7  8  1  0
  8  9  2  0
  9  4  1  0
  2 10  1  0
  3 11  1  0
  3 12  1  0
  5 13  1  0
  6 14  1  0
  7 15  1  0
  9 16  1  0
M  END
