
     RDKit          3D

 16 15  0  0  0  0  0  0  0  0999 V2000
    1.8163    1.2886    0.3532 R   0  0  0  0  0  1  0  0  0  0  0  0
    2.0697    0.6927    0.6706 N   0  0  0  0  0  0  0  0  0  0  0  0
    1.5084   -0.5708    0.2420 C   0  0  0  0  0  0  0  0  0  0  0  0
    0.0206   -0.6465    0.4718 C   0  0  0  0  0  0  0  0  0  0  0  0
   -0.7327    0.4251   -0.2714 C   0  0  0  0  0  0  0  0  0  0  0  0
   -2.2108    0.2355    0.0454 C   0  0  0  0  0  0  0  0  0  0  0  0
    3.1147    0.6017    0.5369 H   0  0  0  0  0  0  0  0  0  0  0  0
    1.7500   -0.6840   -0.8350 H   0  0  0  0  0  0  0  0  0  0  0  0
    1.9732   -1.3701    0.8529 H   0  0  0  0  0  0  0  0  0  0  0  0
   -0.3163   -1.6262    0.0711 H   0  0  0  0  0  0  0  0  0  0  0  0
   -0.1881   -0.6298    1.5530 H   0  0  0  0  0  0  0  0  0  0  0  0
   -0.6204    0.2628   -1.3582 H   0  0  0  0  0  0  0  0  0  0  0  0
   -0.4392    1.4420    0.0402 H   0  0  0  0  0  0  0  0  0  0  0  0
   -2.5514   -0.7698   -0.2845 H   0  0  0  0  0  0  0  0  0  0  0  0
   -2.8268    0.9636   -0.5398 H   0  0  0  0  0  0  0  0  0  0  0  0
   -2.3672    0.3852    1.1465 H   0  0  0  0  0  0  0  0  0  0  0  0
  1  2  1  0
  2  3  1  0
  3  4  1  0
  4  5  1  0
  5  6  1  0
  2  7  1  0
  3  8  1  0
  3  9  1  0
  4 10  1  0
  4 11  1  0
  5 12  1  0
  5 13  1  0
  6 14  1  0
  6 15  1  0
  6 16  1  0
M  END
