
     RDKit          3D

 18 17  0  0  0  0  0  0  0  0999 V2000
    2.5947    0.7561   -0.7453 R   0  0  0  0  0  1  0  0  0  0  0  0
    2.6906   -0.0517   -0.4349 N   0  0  0  0  0  0  0  0  0  0  0  0
    1.5699   -0.3065    0.4412 C   0  0  0  0  0  0  0  0  0  0  0  0
    0.3149   -0.2614   -0.4072 C   0  0  0  0  0  0  0  0  0  0  0  0
   -0.9002   -0.4772    0.3514 N   0  0  0  0  0  0  0  0  0  0  0  0
   -1.9691   -0.6892   -0.6436 C   0  0  0  0  0  0  0  0  0  0  0  0
   -1.2250    0.8584    0.9134 C   0  0  0  0  0  0  0  0  0  0  0  0
    3.6111   -0.0613   -0.0005 H   0  0  0  0  0  0  0  0  0  0  0  0
    1.5622    0.4929    1.2237 H   0  0  0  0  0  0  0  0  0  0  0  0
    1.7565   -1.3239    0.8805 H   0  0  0  0  0  0  0  0  0  0  0  0
    0.2989    0.7733   -0.8556 H   0  0  0  0  0  0  0  0  0  0  0  0
    0.4174   -1.0180   -1.1940 H   0  0  0  0  0  0  0  0  0  0  0  0
   -1.5647   -0.8221   -1.6577 H   0  0  0  0  0  0  0  0  0  0  0  0
   -2.7175    0.1153   -0.6425 H   0  0  0  0  0  0  0  0  0  0  0  0
   -2.5238   -1.6036   -0.2895 H   0  0  0  0  0  0  0  0  0  0  0  0
   -0.8662    0.9115    1.9284 H   0  0  0  0  0  0  0  0  0  0  0  0
   -2.3418    1.0520    0.8139 H   0  0  0  0  0  0  0  0  0  0  0  0
   -0.7080    1.6554    0.3183 H   0  0  0  0  0  0  0  0  0  0  0  0
  1  2  1  0
  2  3  1  0
  3  4  1  0
  4  5  1  0
  5  6  1  0
  5  7  1  0
  2  8  1  0
  3  9  1  0
  3 10  1  0
  4 11  1  0
  4 12  1  0
  6 13  1  0
  6 14  1  0
  6 15  1  0
  7 16  1  0
  7 17  1  0
  7 18  1  0
M  END
