
     RDKit          3D

 10  9  0  0  0  0  0  0  0  0999 V2000
   -1.3916   -0.4327   -0.8741 R   0  0  0  0  0  1  0  0  0  0  0  0
   -1.4350    0.1849   -0.1910 N   0  0  0  0  0  0  0  0  0  0  0  0
   -0.2737   -0.1532    0.6455 C   0  0  0  0  0  0  0  0  0  0  0  0
    0.9910   -0.0198   -0.1801 C   0  0  0  0  0  0  0  0  0  0  0  0
   -1.1374    1.0143   -0.7526 H   0  0  0  0  0  0  0  0  0  0  0  0
   -0.3831   -1.1632    1.0946 H   0  0  0  0  0  0  0  0  0  0  0  0
   -0.2954    0.5636    1.4840 H   0  0  0  0  0  0  0  0  0  0  0  0
    0.7926    0.5959   -1.0817 H   0  0  0  0  0  0  0  0  0  0  0  0
    1.3093   -1.0140   -0.5446 H   0  0  0  0  0  0  0  0  0  0  0  0
    1.8233    0.4242    0.3999 H   0  0  0  0  0  0  0  0  0  0  0  0
  1  2  1  0
  2  3  1  0
  3  4  1  0
  2  5  1  0
  3  6  1  0
  3  7  1  0
  4  8  1  0
  4  9  1  0
  4 10  1  0
M  END
