
     RDKit          3D

 23 23  0  0  0  0  0  0  0  0999 V2000
    2.8361   -0.9517   -1.4639 R   0  0  0  0  0  1  0  0  0  0  0  0
    2.6661    0.0283   -1.6155 N   0  0  0  0  0  0  0  0  0  0  0  0
    2.3015    0.2900   -0.2322 C   0  0  0  0  0  0  0  0  0  0  0  0
    1.1180   -0.4947    0.2100 C   0  0  0  0  0  0  0  0  0  0  0  0
   -0.0932   -0.2697   -0.5221 N   0  0  0  0  0  0  0  0  0  0  0  0
   -1.0901   -1.1546    0.0188 C   0  0  0  0  0  0  0  0  0  0  0  0
   -2.4901   -0.7399   -0.1305 C   0  0  0  0  0  0  0  0  0  0  0  0
   -2.7163    0.6266   -0.1374 O   0  0  0  0  0  0  0  0  0  0  0  0
   -1.6225    1.3009    0.3981 C   0  0  0  0  0  0  0  0  0  0  0  0
   -0.4991    1.0878   -0.6301 C   0  0  0  0  0  0  0  0  0  0  0  0
    3.6756    0.3112   -1.7202 H   0  0  0  0  0  0  0  0  0  0  0  0
    3.1534    0.0090    0.4569 H   0  0  0  0  0  0  0  0  0  0  0  0
    2.2116    1.3843   -0.1132 H   0  0  0  0  0  0  0  0  0  0  0  0
    0.9564   -0.2589    1.3026 H   0  0  0  0  0  0  0  0  0  0  0  0
    1.3606   -1.5770    0.2008 H   0  0  0  0  0  0  0  0  0  0  0  0
   -0.9635   -2.1282   -0.5473 H   0  0  0  0  0  0  0  0  0  0  0  0
   -0.8572   -1.4312    1.0714 H   0  0  0  0  0  0  0  0  0  0  0  0
   -2.9728   -1.1692   -1.0474 H   0  0  0  0  0  0  0  0  0  0  0  0
   -3.1002   -1.1455    0.7210 H   0  0  0  0  0  0  0  0  0  0  0  0
   -1.3540    0.8724    1.3632 H   0  0  0  0  0  0  0  0  0  0  0  0
   -1.8618    2.3591    0.5227 H   0  0  0  0  0  0  0  0  0  0  0  0
    0.2816    1.8306   -0.4583 H   0  0  0  0  0  0  0  0  0  0  0  0
   -0.9403    1.2203   -1.6623 H   0  0  0  0  0  0  0  0  0  0  0  0
  1  2  1  0
  2  3  1  0
  3  4  1  0
  4  5  1  0
  5  6  1  0
  6  7  1  0
  7  8  1  0
  8  9  1  0
  9 10  1  0
 10  5  1  0
  2 11  1  0
  3 12  1  0
  3 13  1  0
  4 14  1  0
  4 15  1  0
  6 16  1  0
  6 17  1  0
  7 18  1  0
  7 19  1  0
  9 20  1  0
  9 21  1  0
 10 22  1  0
 10 23  1  0
M  END
