
     RDKit          3D

 20 20  0  0  0  0  0  0  0  0999 V2000
    1.6778    0.9623   -1.3965 R   0  0  0  0  0  1  0  0  0  0  0  0
    2.1392    0.5559   -1.2325 N   0  0  0  0  0  0  0  0  0  0  0  0
    2.2421   -0.2313   -0.0225 C   0  0  0  0  0  0  0  0  0  0  0  0
    1.0732   -1.1736    0.1443 C   0  0  0  0  0  0  0  0  0  0  0  0
   -0.2169   -0.4829    0.2161 C   0  0  0  0  0  0  0  0  0  0  0  0
   -0.7456   -0.0662    1.4314 C   0  0  0  0  0  0  0  0  0  0  0  0
   -1.9669    0.5818    1.4471 C   0  0  0  0  0  0  0  0  0  0  0  0
   -2.6887    0.8340    0.2962 C   0  0  0  0  0  0  0  0  0  0  0  0
   -2.1282    0.4036   -0.8910 C   0  0  0  0  0  0  0  0  0  0  0  0
   -0.9250   -0.2402   -0.9548 C   0  0  0  0  0  0  0  0  0  0  0  0
    3.1388    0.8135   -1.4930 H   0  0  0  0  0  0  0  0  0  0  0  0
    2.3033    0.4639    0.8330 H   0  0  0  0  0  0  0  0  0  0  0  0
    3.1900   -0.8054   -0.0479 H   0  0  0  0  0  0  0  0  0  0  0  0
    1.2578   -1.7795    1.0501 H   0  0  0  0  0  0  0  0  0  0  0  0
    1.0504   -1.8531   -0.7360 H   0  0  0  0  0  0  0  0  0  0  0  0
   -0.1779   -0.2645    2.3367 H   0  0  0  0  0  0  0  0  0  0  0  0
   -2.3658    0.9018    2.4139 H   0  0  0  0  0  0  0  0  0  0  0  0
   -3.6565    1.3498    0.3295 H   0  0  0  0  0  0  0  0  0  0  0  0
   -2.6958    0.6007   -1.8070 H   0  0  0  0  0  0  0  0  0  0  0  0
   -0.5055   -0.5706   -1.9172 H   0  0  0  0  0  0  0  0  0  0  0  0
  1  2  1  0
  2  3  1  0
  3  4  1  0
  4  5  1  0
  5  6  2  0
  6  7  1  0
  7  8  2  0
  8  9  1  0
  9 10  2  0
 10  5  1  0
  2 11  1  0
  3 12  1  0
  3 13  1  0
  4 14  1  0
  4 15  1  0
  6 16  1  0
  7 17  1  0
  8 18  1  0
  9 19  1  0
 10 20  1  0
M  END
