
     RDKit          3D

 14 14  0  0  0  0  0  0  0  0999 V2000
    1.9418   -0.9785    0.1435 R   0  0  0  0  0  1  0  0  0  0  0  0
    2.2153   -0.1234   -0.3298 N   0  0  0  0  0  0  0  0  0  0  0  0
    0.8681    0.1532   -0.8539 C   0  0  0  0  0  0  0  0  0  0  0  0
   -0.1159    0.3065    0.3045 C   0  0  0  0  0  0  0  0  0  0  0  0
   -1.5302    0.5871    0.0629 C   0  0  0  0  0  0  0  0  0  0  0  0
   -1.1003   -0.7835    0.5442 C   0  0  0  0  0  0  0  0  0  0  0  0
    2.2876    0.3912    0.5778 H   0  0  0  0  0  0  0  0  0  0  0  0
    0.5747   -0.6885   -1.5114 H   0  0  0  0  0  0  0  0  0  0  0  0
    0.9693    1.1027   -1.4050 H   0  0  0  0  0  0  0  0  0  0  0  0
    0.3466    0.7993    1.1908 H   0  0  0  0  0  0  0  0  0  0  0  0
   -2.0907    1.1957    0.8225 H   0  0  0  0  0  0  0  0  0  0  0  0
   -1.9377    0.6812   -0.9612 H   0  0  0  0  0  0  0  0  0  0  0  0
   -1.3063   -1.0277    1.6172 H   0  0  0  0  0  0  0  0  0  0  0  0
   -1.1222   -1.6152   -0.2020 H   0  0  0  0  0  0  0  0  0  0  0  0
  1  2  1  0
  2  3  1  0
  3  4  1  0
  4  5  1  0
  5  6  1  0
  6  4  1  0
  2  7  1  0
  3  8  1  0
  3  9  1  0
  4 10  1  0
  5 11  1  0
  5 12  1  0
  6 13  1  0
  6 14  1  0
M  END
