
     RDKit          3D

 16 16  0  0  0  0  0  0  0  0999 V2000
   -1.8016   -1.0796    1.2839 R   0  0  0  0  0  1  0  0  0  0  0  0
   -2.2217   -0.5191    0.8194 N   0  0  0  0  0  0  0  0  0  0  0  0
   -1.5712   -0.4805   -0.4859 C   0  0  0  0  0  0  0  0  0  0  0  0
   -0.1693   -0.0705   -0.2764 C   0  0  0  0  0  0  0  0  0  0  0  0
    0.7824   -1.0332   -0.0574 C   0  0  0  0  0  0  0  0  0  0  0  0
    2.1001   -0.6440    0.1392 C   0  0  0  0  0  0  0  0  0  0  0  0
    2.4271    0.6623    0.1131 N   0  0  0  0  0  0  0  0  0  0  0  0
    1.5245    1.6423   -0.0987 C   0  0  0  0  0  0  0  0  0  0  0  0
    0.2117    1.2379   -0.2936 C   0  0  0  0  0  0  0  0  0  0  0  0
   -2.1823    0.4164    1.2663 H   0  0  0  0  0  0  0  0  0  0  0  0
   -1.6564   -1.5066   -0.9372 H   0  0  0  0  0  0  0  0  0  0  0  0
   -2.0726    0.2249   -1.1671 H   0  0  0  0  0  0  0  0  0  0  0  0
    0.5532   -2.0994   -0.0298 H   0  0  0  0  0  0  0  0  0  0  0  0
    2.8375   -1.4235    0.3109 H   0  0  0  0  0  0  0  0  0  0  0  0
    1.7846    2.6896   -0.1199 H   0  0  0  0  0  0  0  0  0  0  0  0
   -0.5461    1.9831   -0.4666 H   0  0  0  0  0  0  0  0  0  0  0  0
  1  2  1  0
  2  3  1  0
  3  4  1  0
  4  5  2  0
  5  6  1  0
  6  7  2  0
  7  8  1  0
  8  9  2  0
  9  4  1  0
  2 10  1  0
  3 11  1  0
  3 12  1  0
  5 13  1  0
  6 14  1  0
  8 15  1  0
  9 16  1  0
M  END
