
     RDKit          3D

  9  8  0  0  0  0  0  0  0  0999 V2000
   -1.4467   -0.8557    0.6265 R   0  0  0  0  0  1  0  0  0  0  0  0
   -1.4351   -0.4208    0.1157 N   0  0  0  0  0  0  0  0  0  0  0  0
   -0.0314    0.5721   -0.0126 S   0  0  0  0  0  6  0  0  0  0  0  0
    1.3196   -0.5007   -0.2510 N   0  0  0  0  0  0  0  0  0  0  0  0
   -0.1223    1.5340   -1.1652 O   0  0  0  0  0  0  0  0  0  0  0  0
    0.1377    1.2848    1.2908 O   0  0  0  0  0  0  0  0  0  0  0  0
   -1.9106   -0.4626   -0.7939 H   0  0  0  0  0  0  0  0  0  0  0  0
    2.2039    0.0304   -0.3328 H   0  0  0  0  0  0  0  0  0  0  0  0
    1.2848   -1.1816    0.5224 H   0  0  0  0  0  0  0  0  0  0  0  0
  1  2  1  0
  2  3  1  0
  3  4  1  0
  3  5  2  0
  3  6  2  0
  2  7  1  0
  4  8  1  0
  4  9  1  0
M  END
