
     RDKit          3D

  6  5  0  0  0  0  0  0  0  0999 V2000
    1.4859   -0.0579    0.0005 R   0  0  0  0  0  1  0  0  0  0  0  0
    1.0127   -0.2869   -0.2276 O   0  0  0  0  0  0  0  0  0  0  0  0
   -0.3219    0.0112    0.0036 C   0  0  0  0  0  0  0  0  0  0  0  0
   -1.0773   -0.8139   -0.7865 F   0  0  0  0  0  0  0  0  0  0  0  0
   -0.5871   -0.1833    1.3414 F   0  0  0  0  0  0  0  0  0  0  0  0
   -0.5123    1.3309   -0.3314 F   0  0  0  0  0  0  0  0  0  0  0  0
  1  2  1  0
  2  3  1  0
  3  4  1  0
  3  5  1  0
  3  6  1  0
M  END
