
     RDKit          3D

 15 14  0  0  0  0  0  0  0  0999 V2000
    0.2942   -0.5006    1.9119 R   0  0  0  0  0  1  0  0  0  0  0  0
   -0.1346   -0.6747    1.4778 O   0  0  0  0  0  0  0  0  0  0  0  0
   -0.0077   -0.1324    0.1843 C   0  0  0  0  0  0  0  0  0  0  0  0
   -0.1093    1.3695    0.3122 C   0  0  0  0  0  0  0  0  0  0  0  0
   -1.2145   -0.6186   -0.5894 C   0  0  0  0  0  0  0  0  0  0  0  0
    1.2898   -0.5672   -0.3987 C   0  0  0  0  0  0  0  0  0  0  0  0
   -0.4569    1.6906    1.3175 H   0  0  0  0  0  0  0  0  0  0  0  0
   -0.8405    1.7989   -0.4115 H   0  0  0  0  0  0  0  0  0  0  0  0
    0.8998    1.7815    0.0656 H   0  0  0  0  0  0  0  0  0  0  0  0
   -1.3826   -1.6998   -0.5024 H   0  0  0  0  0  0  0  0  0  0  0  0
   -2.1022   -0.1360   -0.0823 H   0  0  0  0  0  0  0  0  0  0  0  0
   -1.2120   -0.2473   -1.6384 H   0  0  0  0  0  0  0  0  0  0  0  0
    1.2639   -0.7679   -1.4858 H   0  0  0  0  0  0  0  0  0  0  0  0
    2.0741    0.2049   -0.2452 H   0  0  0  0  0  0  0  0  0  0  0  0
    1.6386   -1.5009    0.0842 H   0  0  0  0  0  0  0  0  0  0  0  0
  1  2  1  0
  2  3  1  0
  3  4  1  0
  3  5  1  0
  3  6  1  0
  4  7  1  0
  4  8  1  0
  4  9  1  0
  5 10  1  0
  5 11  1  0
  5 12  1  0
  6 13  1  0
  6 14  1  0
  6 15  1  0
M  END
