
     RDKit          3D

 13 13  0  0  0  0  0  0  0  0999 V2000
    2.8915   -0.4538    0.3291 R   0  0  0  0  0  1  0  0  0  0  0  0
    2.5032   -0.4591   -0.5207 O   0  0  0  0  0  0  0  0  0  0  0  0
    1.1498   -0.2172   -0.2774 C   0  0  0  0  0  0  0  0  0  0  0  0
    0.2639   -1.2652   -0.1218 C   0  0  0  0  0  0  0  0  0  0  0  0
   -1.0722   -0.9923    0.1185 C   0  0  0  0  0  0  0  0  0  0  0  0
   -1.5740    0.2877    0.2122 C   0  0  0  0  0  0  0  0  0  0  0  0
   -3.2922    0.5556    0.5210 Cl  0  0  0  0  0  0  0  0  0  0  0  0
   -0.6890    1.3310    0.0568 C   0  0  0  0  0  0  0  0  0  0  0  0
    0.6452    1.0677   -0.1831 C   0  0  0  0  0  0  0  0  0  0  0  0
    0.6446   -2.2627   -0.1931 H   0  0  0  0  0  0  0  0  0  0  0  0
   -1.7713   -1.7988    0.2413 H   0  0  0  0  0  0  0  0  0  0  0  0
   -1.0578    2.3322    0.1259 H   0  0  0  0  0  0  0  0  0  0  0  0
    1.3585    1.8748   -0.3085 H   0  0  0  0  0  0  0  0  0  0  0  0
  1  2  1  0
  2  3  1  0
  3  4  2  0
  4  5  1  0
  5  6  2  0
  6  7  1  0
  6  8  1  0
  8  9  2  0
  9  3  1  0
  4 10  1  0
  5 11  1  0
  8 12  1  0
  9 13  1  0
M  END
