
     RDKit          3D

 13 13  0  0  0  0  0  0  0  0999 V2000
    2.7053   -0.7526    1.2854 R   0  0  0  0  0  1  0  0  0  0  0  0
    2.2777   -0.6238    0.9669 O   0  0  0  0  0  0  0  0  0  0  0  0
    1.0201   -0.3057    0.4492 C   0  0  0  0  0  0  0  0  0  0  0  0
   -0.1148   -1.0100    0.7909 C   0  0  0  0  0  0  0  0  0  0  0  0
   -1.3581   -0.6852    0.2706 C   0  0  0  0  0  0  0  0  0  0  0  0
   -1.5089    0.3633   -0.6159 C   0  0  0  0  0  0  0  0  0  0  0  0
   -0.3692    1.0644   -0.9540 C   0  0  0  0  0  0  0  0  0  0  0  0
   -0.5528    2.3953   -2.0778 Cl  0  0  0  0  0  0  0  0  0  0  0  0
    0.8721    0.7419   -0.4361 C   0  0  0  0  0  0  0  0  0  0  0  0
    0.0171   -1.8305    1.4875 H   0  0  0  0  0  0  0  0  0  0  0  0
   -2.2403   -1.2639    0.5618 H   0  0  0  0  0  0  0  0  0  0  0  0
   -2.4921    0.5885   -1.0015 H   0  0  0  0  0  0  0  0  0  0  0  0
    1.7439    1.3182   -0.7273 H   0  0  0  0  0  0  0  0  0  0  0  0
  1  2  1  0
  2  3  1  0
  3  4  2  0
  4  5  1  0
  5  6  2  0
  6  7  1  0
  7  8  1  0
  7  9  2  0
  9  3  1  0
  4 10  1  0
  5 11  1  0
  6 12  1  0
  9 13  1  0
M  END
