
     RDKit          3D

 16 16  0  0  0  0  0  0  0  0999 V2000
    2.4596   -0.5853   -1.0398 R   0  0  0  0  0  1  0  0  0  0  0  0
    2.6918    0.3123   -0.8333 O   0  0  0  0  0  0  0  0  0  0  0  0
    1.9989    0.3628    0.3778 C   0  0  0  0  0  0  0  0  0  0  0  0
    0.5453    0.1135    0.1878 C   0  0  0  0  0  0  0  0  0  0  0  0
   -0.0112   -1.1438    0.2395 C   0  0  0  0  0  0  0  0  0  0  0  0
   -1.3765   -1.3131    0.0540 C   0  0  0  0  0  0  0  0  0  0  0  0
   -2.2283   -0.2559   -0.1862 C   0  0  0  0  0  0  0  0  0  0  0  0
   -1.6646    1.0014   -0.2369 C   0  0  0  0  0  0  0  0  0  0  0  0
   -0.3053    1.1718   -0.0524 C   0  0  0  0  0  0  0  0  0  0  0  0
    2.1253    1.3717    0.7788 H   0  0  0  0  0  0  0  0  0  0  0  0
    2.4354   -0.4133    1.0455 H   0  0  0  0  0  0  0  0  0  0  0  0
    0.6534   -1.9671    0.4268 H   0  0  0  0  0  0  0  0  0  0  0  0
   -1.8172   -2.3016    0.0942 H   0  0  0  0  0  0  0  0  0  0  0  0
   -3.2969   -0.3938   -0.3307 H   0  0  0  0  0  0  0  0  0  0  0  0
   -2.3277    1.8565   -0.4273 H   0  0  0  0  0  0  0  0  0  0  0  0
    0.1179    2.1837   -0.0978 H   0  0  0  0  0  0  0  0  0  0  0  0
  1  2  1  0
  2  3  1  0
  3  4  1  0
  4  5  2  0
  5  6  1  0
  6  7  2  0
  7  8  1  0
  8  9  2  0
  9  4  1  0
  3 10  1  0
  3 11  1  0
  5 12  1  0
  6 13  1  0
  7 14  1  0
  8 15  1  0
  9 16  1  0
M  END
