
     RDKit          3D

 13 13  0  0  0  0  0  0  0  0999 V2000
    2.3699    1.0331   -0.9213 R   0  0  0  0  0  1  0  0  0  0  0  0
    1.7483    1.0141   -0.2801 O   0  0  0  0  0  0  0  0  0  0  0  0
    1.1128   -0.2293   -0.5253 C   0  0  0  0  0  0  0  0  0  0  0  0
    0.0431   -0.3778    0.4922 C   0  0  0  0  0  0  0  0  0  0  0  0
   -1.0138    0.7245    0.4487 C   0  0  0  0  0  0  0  0  0  0  0  0
   -1.3546   -0.6999    0.1669 C   0  0  0  0  0  0  0  0  0  0  0  0
    0.7329   -0.1349   -1.5680 H   0  0  0  0  0  0  0  0  0  0  0  0
    1.8487   -1.0465   -0.5374 H   0  0  0  0  0  0  0  0  0  0  0  0
    0.4045   -0.7150    1.4922 H   0  0  0  0  0  0  0  0  0  0  0  0
   -1.2049    1.1888    1.4240 H   0  0  0  0  0  0  0  0  0  0  0  0
   -1.0359    1.4094   -0.3983 H   0  0  0  0  0  0  0  0  0  0  0  0
   -1.9791   -1.1782    0.9585 H   0  0  0  0  0  0  0  0  0  0  0  0
   -1.6720   -0.9885   -0.8493 H   0  0  0  0  0  0  0  0  0  0  0  0
  1  2  1  0
  2  3  1  0
  3  4  1  0
  4  5  1  0
  5  6  1  0
  6  4  1  0
  3  7  1  0
  3  8  1  0
  4  9  1  0
  5 10  1  0
  5 11  1  0
  6 12  1  0
  6 13  1  0
M  END
