
     RDKit          3D

 24 24  0  0  0  0  0  0  0  0999 V2000
    4.0415   -1.3825   -0.6380 R   0  0  0  0  0  1  0  0  0  0  0  0
    3.6653   -0.9093   -0.9750 O   0  0  0  0  0  0  0  0  0  0  0  0
    2.5734   -0.4822   -0.1814 C   0  0  0  0  0  0  0  0  0  0  0  0
    1.8373    0.5278   -1.0038 C   0  0  0  0  0  0  0  0  0  0  0  0
    0.6225    1.0993   -0.3213 C   0  0  0  0  0  0  0  0  0  0  0  0
   -0.3599    0.1535    0.0330 N   0  0  0  0  0  0  0  0  0  0  0  0
   -1.4896    0.7695    0.6350 C   0  0  0  0  0  0  0  0  0  0  0  0
   -2.7286    0.1330    0.0538 C   0  0  0  0  0  0  0  0  0  0  0  0
   -2.2506   -0.8217   -1.0041 C   0  0  0  0  0  0  0  0  0  0  0  0
   -0.7413   -0.8288   -0.8942 C   0  0  0  0  0  0  0  0  0  0  0  0
    1.9699   -1.3880    0.0533 H   0  0  0  0  0  0  0  0  0  0  0  0
    3.0333   -0.0454    0.7329 H   0  0  0  0  0  0  0  0  0  0  0  0
    2.5508    1.3959   -1.1316 H   0  0  0  0  0  0  0  0  0  0  0  0
    1.6440    0.1556   -2.0090 H   0  0  0  0  0  0  0  0  0  0  0  0
    0.2754    1.9450   -0.9489 H   0  0  0  0  0  0  0  0  0  0  0  0
    1.0028    1.5905    0.6201 H   0  0  0  0  0  0  0  0  0  0  0  0
   -1.4410    0.5966    1.7305 H   0  0  0  0  0  0  0  0  0  0  0  0
   -1.5207    1.8609    0.4238 H   0  0  0  0  0  0  0  0  0  0  0  0
   -3.3822    0.9018   -0.4071 H   0  0  0  0  0  0  0  0  0  0  0  0
   -3.3549   -0.3672    0.8241 H   0  0  0  0  0  0  0  0  0  0  0  0
   -2.5147   -0.4713   -2.0270 H   0  0  0  0  0  0  0  0  0  0  0  0
   -2.6812   -1.8112   -0.8564 H   0  0  0  0  0  0  0  0  0  0  0  0
   -0.2838   -0.7867   -1.8855 H   0  0  0  0  0  0  0  0  0  0  0  0
   -0.4677   -1.8349   -0.4594 H   0  0  0  0  0  0  0  0  0  0  0  0
  1  2  1  0
  2  3  1  0
  3  4  1  0
  4  5  1  0
  5  6  1  0
  6  7  1  0
  7  8  1  0
  8  9  1  0
  9 10  1  0
 10  6  1  0
  3 11  1  0
  3 12  1  0
  4 13  1  0
  4 14  1  0
  5 15  1  0
  5 16  1  0
  7 17  1  0
  7 18  1  0
  8 19  1  0
  8 20  1  0
  9 21  1  0
  9 22  1  0
 10 23  1  0
 10 24  1  0
M  END
