
     RDKit          3D

 27 27  0  0  0  0  0  0  0  0999 V2000
    5.1620   -0.1528   -0.1363 R   0  0  0  0  0  1  0  0  0  0  0  0
    4.5078   -0.3334   -0.6652 O   0  0  0  0  0  0  0  0  0  0  0  0
    3.4147    0.0485    0.1220 C   0  0  0  0  0  0  0  0  0  0  0  0
    2.1170   -0.0315   -0.6728 C   0  0  0  0  0  0  0  0  0  0  0  0
    1.0154    0.4010    0.2765 C   0  0  0  0  0  0  0  0  0  0  0  0
   -0.2793    0.3764   -0.3440 N   0  0  0  0  0  0  0  0  0  0  0  0
   -0.7022   -0.9300   -0.6043 C   0  0  0  0  0  0  0  0  0  0  0  0
   -1.8230   -1.3613    0.3350 C   0  0  0  0  0  0  0  0  0  0  0  0
   -2.9799   -0.4552    0.0022 C   0  0  0  0  0  0  0  0  0  0  0  0
   -2.6069    0.9530    0.2838 C   0  0  0  0  0  0  0  0  0  0  0  0
   -1.1564    1.2779    0.2814 C   0  0  0  0  0  0  0  0  0  0  0  0
    3.5231    1.0802    0.4625 H   0  0  0  0  0  0  0  0  0  0  0  0
    3.3051   -0.6786    0.9567 H   0  0  0  0  0  0  0  0  0  0  0  0
    1.9366   -1.0127   -1.1214 H   0  0  0  0  0  0  0  0  0  0  0  0
    2.2236    0.7341   -1.5012 H   0  0  0  0  0  0  0  0  0  0  0  0
    1.2953    1.4058    0.6785 H   0  0  0  0  0  0  0  0  0  0  0  0
    0.9929   -0.3217    1.1494 H   0  0  0  0  0  0  0  0  0  0  0  0
    0.0773   -1.6986   -0.5660 H   0  0  0  0  0  0  0  0  0  0  0  0
   -1.1779   -0.9790   -1.6301 H   0  0  0  0  0  0  0  0  0  0  0  0
   -2.1125   -2.3837    0.0870 H   0  0  0  0  0  0  0  0  0  0  0  0
   -1.5372   -1.1940    1.3938 H   0  0  0  0  0  0  0  0  0  0  0  0
   -3.8595   -0.7555    0.6042 H   0  0  0  0  0  0  0  0  0  0  0  0
   -3.2506   -0.5792   -1.0736 H   0  0  0  0  0  0  0  0  0  0  0  0
   -3.1704    1.5790   -0.4440 H   0  0  0  0  0  0  0  0  0  0  0  0
   -3.0489    1.2180    1.2830 H   0  0  0  0  0  0  0  0  0  0  0  0
   -1.0449    2.2649   -0.2628 H   0  0  0  0  0  0  0  0  0  0  0  0
   -0.8211    1.5284    1.3154 H   0  0  0  0  0  0  0  0  0  0  0  0
  1  2  1  0
  2  3  1  0
  3  4  1  0
  4  5  1  0
  5  6  1  0
  6  7  1  0
  7  8  1  0
  8  9  1  0
  9 10  1  0
 10 11  1  0
 11  6  1  0
  3 12  1  0
  3 13  1  0
  4 14  1  0
  4 15  1  0
  5 16  1  0
  5 17  1  0
  7 18  1  0
  7 19  1  0
  8 20  1  0
  8 21  1  0
  9 22  1  0
  9 23  1  0
 10 24  1  0
 10 25  1  0
 11 26  1  0
 11 27  1  0
M  END
