
     RDKit          3D

 10  9  0  0  0  0  0  0  0  0999 V2000
   -1.8701    1.0434   -0.0542 R   0  0  0  0  0  1  0  0  0  0  0  0
   -1.3526    0.8767   -0.0244 O   0  0  0  0  0  0  0  0  0  0  0  0
   -0.7627   -0.3607    0.0992 C   0  0  0  0  0  0  0  0  0  0  0  0
    0.7577   -0.2230    0.1323 C   0  0  0  0  0  0  0  0  0  0  0  0
    1.2377    0.3733   -1.0391 O   0  0  0  0  0  0  0  0  0  0  0  0
   -1.0201   -1.0773   -0.6902 H   0  0  0  0  0  0  0  0  0  0  0  0
   -1.0395   -0.7876    1.0929 H   0  0  0  0  0  0  0  0  0  0  0  0
    1.0725    0.2926    1.0372 H   0  0  0  0  0  0  0  0  0  0  0  0
    1.1602   -1.2627    0.1941 H   0  0  0  0  0  0  0  0  0  0  0  0
    1.8170    1.1253   -0.7477 H   0  0  0  0  0  0  0  0  0  0  0  0
  1  2  1  0
  2  3  1  0
  3  4  1  0
  4  5  1  0
  3  6  1  0
  3  7  1  0
  4  8  1  0
  4  9  1  0
  5 10  1  0
M  END
