
     RDKit          3D

 22 22  0  0  0  0  0  0  0  0999 V2000
    2.0959   -1.3181    1.4217 R   0  0  0  0  0  1  0  0  0  0  0  0
    1.9963   -1.0708    1.0644 O   0  0  0  0  0  0  0  0  0  0  0  0
    2.3004    0.1437    0.4408 C   0  0  0  0  0  0  0  0  0  0  0  0
    1.4839    0.2405   -0.8252 C   0  0  0  0  0  0  0  0  0  0  0  0
    0.1274    0.1873   -0.5330 N   0  0  0  0  0  0  0  0  0  0  0  0
   -0.5080    1.2192    0.1478 C   0  0  0  0  0  0  0  0  0  0  0  0
   -1.8582    0.8760    0.7131 C   0  0  0  0  0  0  0  0  0  0  0  0
   -2.5718   -0.0120   -0.0912 O   0  0  0  0  0  0  0  0  0  0  0  0
   -1.8020   -1.1948   -0.1095 C   0  0  0  0  0  0  0  0  0  0  0  0
   -0.6415   -0.8750   -1.0585 C   0  0  0  0  0  0  0  0  0  0  0  0
    2.0385    0.9814    1.1126 H   0  0  0  0  0  0  0  0  0  0  0  0
    3.3856    0.2405    0.2246 H   0  0  0  0  0  0  0  0  0  0  0  0
    1.7366    1.1298   -1.4226 H   0  0  0  0  0  0  0  0  0  0  0  0
    1.7581   -0.6610   -1.4352 H   0  0  0  0  0  0  0  0  0  0  0  0
   -0.6366    2.1047   -0.5092 H   0  0  0  0  0  0  0  0  0  0  0  0
    0.1003    1.5792    1.0285 H   0  0  0  0  0  0  0  0  0  0  0  0
   -2.4584    1.7863    0.9261 H   0  0  0  0  0  0  0  0  0  0  0  0
   -1.7363    0.3613    1.6959 H   0  0  0  0  0  0  0  0  0  0  0  0
   -1.3257   -1.3143    0.8960 H   0  0  0  0  0  0  0  0  0  0  0  0
   -2.3589   -2.0661   -0.4487 H   0  0  0  0  0  0  0  0  0  0  0  0
   -0.0262   -1.7787   -1.2159 H   0  0  0  0  0  0  0  0  0  0  0  0
   -1.0994   -0.5591   -2.0226 H   0  0  0  0  0  0  0  0  0  0  0  0
  1  2  1  0
  2  3  1  0
  3  4  1  0
  4  5  1  0
  5  6  1  0
  6  7  1  0
  7  8  1  0
  8  9  1  0
  9 10  1  0
 10  5  1  0
  3 11  1  0
  3 12  1  0
  4 13  1  0
  4 14  1  0
  6 15  1  0
  6 16  1  0
  7 17  1  0
  7 18  1  0
  9 19  1  0
  9 20  1  0
 10 21  1  0
 10 22  1  0
M  END
