
     RDKit          3D

 19 19  0  0  0  0  0  0  0  0999 V2000
   -2.5070    1.7112    0.8920 R   0  0  0  0  0  1  0  0  0  0  0  0
   -2.1651    1.2182    0.8855 O   0  0  0  0  0  0  0  0  0  0  0  0
   -2.3530    0.2117   -0.0320 C   0  0  0  0  0  0  0  0  0  0  0  0
   -1.3630   -0.9268    0.1572 C   0  0  0  0  0  0  0  0  0  0  0  0
    0.0289   -0.4690    0.0116 C   0  0  0  0  0  0  0  0  0  0  0  0
    0.6551   -0.4781   -1.2071 C   0  0  0  0  0  0  0  0  0  0  0  0
    1.9719   -0.0482   -1.3618 C   0  0  0  0  0  0  0  0  0  0  0  0
    2.6621    0.3985   -0.2556 C   0  0  0  0  0  0  0  0  0  0  0  0
    2.0239    0.4033    0.9627 C   0  0  0  0  0  0  0  0  0  0  0  0
    0.7101   -0.0260    1.1146 C   0  0  0  0  0  0  0  0  0  0  0  0
   -3.3964   -0.1441   -0.0035 H   0  0  0  0  0  0  0  0  0  0  0  0
   -2.1379    0.6331   -1.0490 H   0  0  0  0  0  0  0  0  0  0  0  0
   -1.5832   -1.7436   -0.5525 H   0  0  0  0  0  0  0  0  0  0  0  0
   -1.5725   -1.3412    1.1725 H   0  0  0  0  0  0  0  0  0  0  0  0
    0.1100   -0.8317   -2.0848 H   0  0  0  0  0  0  0  0  0  0  0  0
    2.4553   -0.0599   -2.3275 H   0  0  0  0  0  0  0  0  0  0  0  0
    3.6861    0.7457   -0.3066 H   0  0  0  0  0  0  0  0  0  0  0  0
    2.5321    0.7501    1.8728 H   0  0  0  0  0  0  0  0  0  0  0  0
    0.2426   -0.0030    2.1116 H   0  0  0  0  0  0  0  0  0  0  0  0
  1  2  1  0
  2  3  1  0
  3  4  1  0
  4  5  1  0
  5  6  2  0
  6  7  1  0
  7  8  2  0
  8  9  1  0
  9 10  2  0
 10  5  1  0
  3 11  1  0
  3 12  1  0
  4 13  1  0
  4 14  1  0
  6 15  1  0
  7 16  1  0
  8 17  1  0
  9 18  1  0
 10 19  1  0
M  END
