
     RDKit          3D

 23 22  0  0  0  0  0  0  0  0999 V2000
    3.0149   -0.4624   -1.7877 R   0  0  0  0  0  1  0  0  0  0  0  0
    2.1673   -0.0078   -1.5856 O   0  0  0  0  0  0  0  0  0  0  0  0
    2.3986   -0.0395   -0.1872 C   0  0  0  0  0  0  0  0  0  0  0  0
    1.2343    0.6100    0.4813 C   0  0  0  0  0  0  0  0  0  0  0  0
   -0.0165   -0.0114    0.2378 N   0  0  0  0  0  0  0  0  0  0  0  0
   -0.2770   -1.2624    0.7547 C   0  0  0  0  0  0  0  0  0  0  0  0
   -1.6462   -1.7530    0.3502 C   0  0  0  0  0  0  0  0  0  0  0  0
   -0.9078    0.6440   -0.6024 C   0  0  0  0  0  0  0  0  0  0  0  0
   -1.4861    1.9275   -0.0877 C   0  0  0  0  0  0  0  0  0  0  0  0
    2.6610   -1.0319    0.1592 H   0  0  0  0  0  0  0  0  0  0  0  0
    3.2808    0.6160   -0.0311 H   0  0  0  0  0  0  0  0  0  0  0  0
    1.4181    0.5941    1.5757 H   0  0  0  0  0  0  0  0  0  0  0  0
    1.1831    1.6564    0.1117 H   0  0  0  0  0  0  0  0  0  0  0  0
   -0.2721   -1.3582    1.8677 H   0  0  0  0  0  0  0  0  0  0  0  0
    0.4356   -2.0615    0.3956 H   0  0  0  0  0  0  0  0  0  0  0  0
   -1.8446   -2.7499    0.8417 H   0  0  0  0  0  0  0  0  0  0  0  0
   -2.4713   -1.0794    0.6463 H   0  0  0  0  0  0  0  0  0  0  0  0
   -1.7048   -1.9870   -0.7352 H   0  0  0  0  0  0  0  0  0  0  0  0
   -0.3860    0.8704   -1.5809 H   0  0  0  0  0  0  0  0  0  0  0  0
   -1.7648    0.0062   -0.8770 H   0  0  0  0  0  0  0  0  0  0  0  0
   -1.9283    2.4969   -0.9598 H   0  0  0  0  0  0  0  0  0  0  0  0
   -2.3205    1.7879    0.6307 H   0  0  0  0  0  0  0  0  0  0  0  0
   -0.7678    2.5949    0.3820 H   0  0  0  0  0  0  0  0  0  0  0  0
  1  2  1  0
  2  3  1  0
  3  4  1  0
  4  5  1  0
  5  6  1  0
  6  7  1  0
  5  8  1  0
  8  9  1  0
  3 10  1  0
  3 11  1  0
  4 12  1  0
  4 13  1  0
  6 14  1  0
  6 15  1  0
  7 16  1  0
  7 17  1  0
  7 18  1  0
  8 19  1  0
  8 20  1  0
  9 21  1  0
  9 22  1  0
  9 23  1  0
M  END
