
     RDKit          3D

 20 19  0  0  0  0  0  0  0  0999 V2000
    3.1642   -1.1231    0.2777 R   0  0  0  0  0  1  0  0  0  0  0  0
    2.5754   -0.9828   -0.2420 O   0  0  0  0  0  0  0  0  0  0  0  0
    2.0975    0.3297   -0.0097 C   0  0  0  0  0  0  0  0  0  0  0  0
    0.9707    0.6442   -0.9786 C   0  0  0  0  0  0  0  0  0  0  0  0
   -0.1803   -0.3177   -0.8126 C   0  0  0  0  0  0  0  0  0  0  0  0
   -0.7388   -0.2729    0.5181 N   0  0  0  0  0  0  0  0  0  0  0  0
   -1.8388   -1.1987    0.6613 C   0  0  0  0  0  0  0  0  0  0  0  0
   -1.2485    1.0409    0.8553 C   0  0  0  0  0  0  0  0  0  0  0  0
    2.9221    1.0557   -0.1330 H   0  0  0  0  0  0  0  0  0  0  0  0
    1.6816    0.3132    1.0172 H   0  0  0  0  0  0  0  0  0  0  0  0
    1.3482    0.5013   -2.0263 H   0  0  0  0  0  0  0  0  0  0  0  0
    0.6586    1.6923   -0.8956 H   0  0  0  0  0  0  0  0  0  0  0  0
    0.2391   -1.3399   -0.9490 H   0  0  0  0  0  0  0  0  0  0  0  0
   -0.9299   -0.0590   -1.5938 H   0  0  0  0  0  0  0  0  0  0  0  0
   -1.4847   -2.1094    1.1934 H   0  0  0  0  0  0  0  0  0  0  0  0
   -2.2670   -1.4928   -0.3210 H   0  0  0  0  0  0  0  0  0  0  0  0
   -2.6803   -0.7688    1.2433 H   0  0  0  0  0  0  0  0  0  0  0  0
   -1.5867    0.9776    1.9210 H   0  0  0  0  0  0  0  0  0  0  0  0
   -0.5113    1.8381    0.7789 H   0  0  0  0  0  0  0  0  0  0  0  0
   -2.1913    1.2719    0.2792 H   0  0  0  0  0  0  0  0  0  0  0  0
  1  2  1  0
  2  3  1  0
  3  4  1  0
  4  5  1  0
  5  6  1  0
  6  7  1  0
  6  8  1  0
  3  9  1  0
  3 10  1  0
  4 11  1  0
  4 12  1  0
  5 13  1  0
  5 14  1  0
  7 15  1  0
  7 16  1  0
  7 17  1  0
  8 18  1  0
  8 19  1  0
  8 20  1  0
M  END
