
     RDKit          3D

 21 21  0  0  0  0  0  0  0  0999 V2000
    3.9745    0.3359    0.0750 R   0  0  0  0  0  1  0  0  0  0  0  0
    3.4254   -0.0134    0.6820 O   0  0  0  0  0  0  0  0  0  0  0  0
    2.2733   -0.0248   -0.1392 C   0  0  0  0  0  0  0  0  0  0  0  0
    1.1044   -0.5962    0.6530 C   0  0  0  0  0  0  0  0  0  0  0  0
   -0.0389   -0.5922   -0.2072 N   0  0  0  0  0  0  0  0  0  0  0  0
   -1.2351   -1.1000    0.3800 C   0  0  0  0  0  0  0  0  0  0  0  0
   -2.2380    0.0296    0.3887 C   0  0  0  0  0  0  0  0  0  0  0  0
   -1.8010    0.7988   -0.8453 C   0  0  0  0  0  0  0  0  0  0  0  0
   -0.2827    0.7542   -0.6492 C   0  0  0  0  0  0  0  0  0  0  0  0
    2.5329   -0.6633   -1.0083 H   0  0  0  0  0  0  0  0  0  0  0  0
    2.0723    0.9802   -0.4965 H   0  0  0  0  0  0  0  0  0  0  0  0
    0.9166    0.1573    1.4731 H   0  0  0  0  0  0  0  0  0  0  0  0
    1.3458   -1.5590    1.1089 H   0  0  0  0  0  0  0  0  0  0  0  0
   -1.0956   -1.5582    1.3738 H   0  0  0  0  0  0  0  0  0  0  0  0
   -1.6459   -1.8762   -0.3247 H   0  0  0  0  0  0  0  0  0  0  0  0
   -3.2784   -0.3276    0.2757 H   0  0  0  0  0  0  0  0  0  0  0  0
   -2.0988    0.7000    1.2569 H   0  0  0  0  0  0  0  0  0  0  0  0
   -2.1649    1.8332   -0.8509 H   0  0  0  0  0  0  0  0  0  0  0  0
   -2.0063    0.2416   -1.7734 H   0  0  0  0  0  0  0  0  0  0  0  0
    0.2653    1.0146   -1.5533 H   0  0  0  0  0  0  0  0  0  0  0  0
   -0.0248    1.4656    0.1807 H   0  0  0  0  0  0  0  0  0  0  0  0
  1  2  1  0
  2  3  1  0
  3  4  1  0
  4  5  1  0
  5  6  1  0
  6  7  1  0
  7  8  1  0
  8  9  1  0
  9  5  1  0
  3 10  1  0
  3 11  1  0
  4 12  1  0
  4 13  1  0
  6 14  1  0
  6 15  1  0
  7 16  1  0
  7 17  1  0
  8 18  1  0
  8 19  1  0
  9 20  1  0
  9 21  1  0
M  END
