
     RDKit          3D

 13 12  0  0  0  0  0  0  0  0999 V2000
   -0.8641   -1.8328   -0.8057 R   0  0  0  0  0  1  0  0  0  0  0  0
   -0.9230   -1.2492   -0.1775 S   0  0  0  0  0  6  0  0  0  0  0  0
   -2.3230   -0.6666   -0.2372 O   0  0  0  0  0  0  0  0  0  0  0  0
   -0.7418   -1.8872    1.1452 O   0  0  0  0  0  0  0  0  0  0  0  0
    0.1582    0.0544   -0.4676 N   0  0  0  0  0  0  0  0  0  0  0  0
    1.4608   -0.1530    0.1161 C   0  0  0  0  0  0  0  0  0  0  0  0
   -0.4079    1.3366   -0.1477 C   0  0  0  0  0  0  0  0  0  0  0  0
    1.8319   -1.1343   -0.2986 H   0  0  0  0  0  0  0  0  0  0  0  0
    2.1267    0.6413   -0.2931 H   0  0  0  0  0  0  0  0  0  0  0  0
    1.4840   -0.1110    1.2040 H   0  0  0  0  0  0  0  0  0  0  0  0
   -1.2168    1.1574    0.6065 H   0  0  0  0  0  0  0  0  0  0  0  0
    0.3184    2.0177    0.3657 H   0  0  0  0  0  0  0  0  0  0  0  0
   -0.9035    1.8268   -1.0100 H   0  0  0  0  0  0  0  0  0  0  0  0
  1  2  1  0
  2  3  2  0
  2  4  2  0
  2  5  1  0
  5  6  1  0
  5  7  1  0
  6  8  1  0
  6  9  1  0
  6 10  1  0
  7 11  1  0
  7 12  1  0
  7 13  1  0
M  END
