
     RDKit          3D

 15 15  0  0  0  0  0  0  0  0999 V2000
    2.6455   -0.6153   -1.0190 R   0  0  0  0  0  1  0  0  0  0  0  0
    2.4104   -0.3999   -0.1684 S   0  0  0  0  0  6  0  0  0  0  0  0
    2.8470   -1.5058    0.7402 O   0  0  0  0  0  0  0  0  0  0  0  0
    3.1296    0.8388    0.2694 O   0  0  0  0  0  0  0  0  0  0  0  0
    0.6784   -0.1215   -0.0743 C   0  0  0  0  0  0  0  0  0  0  0  0
    0.1308    1.1273   -0.2757 C   0  0  0  0  0  0  0  0  0  0  0  0
   -1.2378    1.3609   -0.2041 C   0  0  0  0  0  0  0  0  0  0  0  0
   -2.1106    0.3284    0.0768 C   0  0  0  0  0  0  0  0  0  0  0  0
   -3.8339    0.6397    0.1636 Cl  0  0  0  0  0  0  0  0  0  0  0  0
   -1.5727   -0.9283    0.2807 C   0  0  0  0  0  0  0  0  0  0  0  0
   -0.2047   -1.1435    0.2054 C   0  0  0  0  0  0  0  0  0  0  0  0
    0.8257    1.9267   -0.4949 H   0  0  0  0  0  0  0  0  0  0  0  0
   -1.6425    2.3639   -0.3690 H   0  0  0  0  0  0  0  0  0  0  0  0
   -2.2685   -1.7300    0.5004 H   0  0  0  0  0  0  0  0  0  0  0  0
    0.2033   -2.1414    0.3690 H   0  0  0  0  0  0  0  0  0  0  0  0
  1  2  1  0
  2  3  2  0
  2  4  2  0
  2  5  1  0
  5  6  2  0
  6  7  1  0
  7  8  2  0
  8  9  1  0
  8 10  1  0
 10 11  2  0
 11  5  1  0
  6 12  1  0
  7 13  1  0
 10 14  1  0
 11 15  1  0
M  END
