
     RDKit          3D

 16 16  0  0  0  0  0  0  0  0999 V2000
   -2.6449    0.5154    1.4504 R   0  0  0  0  0  1  0  0  0  0  0  0
   -2.8404   -0.5604    1.0484 S   0  0  0  0  0  0  0  0  0  0  0  0
   -1.9575   -0.2952   -0.5135 C   0  0  0  0  0  0  0  0  0  0  0  0
   -0.5063   -0.0904   -0.2605 C   0  0  0  0  0  0  0  0  0  0  0  0
    0.3465   -1.1987   -0.2412 C   0  0  0  0  0  0  0  0  0  0  0  0
    1.6973   -1.0278   -0.0076 C   0  0  0  0  0  0  0  0  0  0  0  0
    2.2577    0.2122    0.2126 C   0  0  0  0  0  0  0  0  0  0  0  0
    1.4132    1.3005    0.1925 C   0  0  0  0  0  0  0  0  0  0  0  0
    0.0477    1.1536   -0.0409 C   0  0  0  0  0  0  0  0  0  0  0  0
   -2.3963    0.5808   -1.0226 H   0  0  0  0  0  0  0  0  0  0  0  0
   -2.0558   -1.2186   -1.0931 H   0  0  0  0  0  0  0  0  0  0  0  0
   -0.1081   -2.1663   -0.4157 H   0  0  0  0  0  0  0  0  0  0  0  0
    2.3230   -1.9086   -0.0003 H   0  0  0  0  0  0  0  0  0  0  0  0
    3.3084    0.3817    0.3978 H   0  0  0  0  0  0  0  0  0  0  0  0
    1.7443    2.3229    0.3530 H   0  0  0  0  0  0  0  0  0  0  0  0
   -0.6289    1.9989   -0.0593 H   0  0  0  0  0  0  0  0  0  0  0  0
  1  2  1  0
  2  3  1  0
  3  4  1  0
  4  5  2  0
  5  6  1  0
  6  7  2  0
  7  8  1  0
  8  9  2  0
  9  4  1  0
  3 10  1  0
  3 11  1  0
  5 12  1  0
  6 13  1  0
  7 14  1  0
  8 15  1  0
  9 16  1  0
M  END
