
     RDKit          3D

 23 23  0  0  0  0  0  0  0  0999 V2000
   -1.4294   -1.6130   -0.1502 C   0  0  0  0  0  0  0  0  0  0  0  0
   -2.4457   -0.4932   -0.1206 C   0  0  0  0  0  0  0  0  0  0  0  0
   -1.3414    0.4424   -0.1600 N   0  0  0  0  0  0  0  0  0  0  0  0
   -1.5196    1.5832   -1.0013 C   0  0  0  0  0  0  0  0  0  0  0  0
   -0.4354   -0.5705   -0.5985 C   0  0  0  0  0  0  0  0  0  0  0  0
    0.8556   -0.6672    0.1863 C   0  0  0  0  0  0  0  0  0  0  0  0
    1.7894    0.4056   -0.3229 C   0  0  0  0  0  0  0  0  0  0  0  0
    3.1139    0.3819    0.4109 C   0  0  0  0  0  0  0  0  0  0  0  0
   -1.7205   -2.3552   -0.9170 H   0  0  0  0  0  0  0  0  0  0  0  0
   -1.2188   -2.0675    0.8514 H   0  0  0  0  0  0  0  0  0  0  0  0
   -2.9561   -0.4435    0.8382 H   0  0  0  0  0  0  0  0  0  0  0  0
   -3.0505   -0.4094   -1.0392 H   0  0  0  0  0  0  0  0  0  0  0  0
   -2.4062    1.4939   -1.6762 H   0  0  0  0  0  0  0  0  0  0  0  0
   -1.7762    2.4477   -0.3198 H   0  0  0  0  0  0  0  0  0  0  0  0
   -0.6437    1.8943   -1.5671 H   0  0  0  0  0  0  0  0  0  0  0  0
   -0.3165   -0.5779   -1.6943 H   0  0  0  0  0  0  0  0  0  0  0  0
    0.6165   -0.4680    1.2574 H   0  0  0  0  0  0  0  0  0  0  0  0
    1.3036   -1.6746    0.1552 H   0  0  0  0  0  0  0  0  0  0  0  0
    1.2627    1.3778   -0.2037 H   0  0  0  0  0  0  0  0  0  0  0  0
    1.9835    0.1892   -1.3979 H   0  0  0  0  0  0  0  0  0  0  0  0
    2.9707    0.2484    1.5108 R   0  0  0  0  0  0  0  0  0  0  0  0
    3.7246   -0.4516    0.0225 H   0  0  0  0  0  0  0  0  0  0  0  0
    3.6396    1.3272    0.1639 H   0  0  0  0  0  0  0  0  0  0  0  0
  1  2  1  0
  1  9  1  0
  1 10  1  0
  2  3  1  0
  2 11  1  0
  2 12  1  0
  3  4  1  0
  3  5  1  0
  4 13  1  0
  4 14  1  0
  4 15  1  0
  5  6  1  0
  5  1  1  0
  5 16  1  0
  6  7  1  0
  6 17  1  0
  6 18  1  0
  7  8  1  0
  7 19  1  0
  7 20  1  0
  8 21  1  0
  8 22  1  0
  8 23  1  0
M  END
$$$$
