
     RDKit          3D

 12 12  0  0  0  0  0  0  0  0999 V2000
   -0.6467   -0.9267   -0.1302 C   0  0  0  0  0  0  0  0  0  0  0  0
   -1.9420   -0.4460   -0.0685 C   0  0  0  0  0  0  0  0  0  0  0  0
   -1.8098    0.8852    0.1070 N   0  0  0  0  0  0  0  0  0  0  0  0
   -0.4941    1.2036    0.1506 C   0  0  0  0  0  0  0  0  0  0  0  0
    0.2349    0.0818    0.0037 N   0  0  0  0  0  0  0  0  0  0  0  0
    1.6931   -0.0012   -0.0054 C   0  0  0  0  0  0  0  0  0  0  0  0
   -0.3821   -1.9627   -0.2663 H   0  0  0  0  0  0  0  0  0  0  0  0
   -2.8784   -0.9935   -0.1417 H   0  0  0  0  0  0  0  0  0  0  0  0
   -0.0531    2.1746    0.2790 H   0  0  0  0  0  0  0  0  0  0  0  0
    2.0327   -1.0260    0.2722 R   0  0  0  0  0  0  0  0  0  0  0  0
    2.1273    0.6711    0.7735 H   0  0  0  0  0  0  0  0  0  0  0  0
    2.1181    0.3397   -0.9739 H   0  0  0  0  0  0  0  0  0  0  0  0
  1  2  2  0
  1  7  1  0
  2  3  1  0
  2  8  1  0
  3  4  2  0
  4  5  1  0
  4  9  1  0
  5  6  1  0
  5  1  1  0
  6 10  1  0
  6 11  1  0
  6 12  1  0
M  END
$$$$
