
     RDKit          3D

 16 16  0  0  0  0  0  0  0  0999 V2000
   -1.4340   -0.5765   -0.4993 C   0  0  0  0  0  0  0  0  0  0  0  0
   -2.0647    0.5442    0.3140 C   0  0  0  0  0  0  0  0  0  0  0  0
   -0.8740    0.5583    1.0681 O   0  0  0  0  0  0  0  0  0  0  0  0
   -0.2247    0.3020   -0.1588 C   0  0  0  0  0  0  0  0  0  0  0  0
    0.9951   -0.5603   -0.0487 C   0  0  0  0  0  0  0  0  0  0  0  0
    2.2338    0.2176    0.2838 C   0  0  0  0  0  0  0  0  0  0  0  0
   -1.3946   -1.5396    0.0058 H   0  0  0  0  0  0  0  0  0  0  0  0
   -1.7067   -0.5682   -1.5725 H   0  0  0  0  0  0  0  0  0  0  0  0
   -2.9683    0.2936    0.8570 H   0  0  0  0  0  0  0  0  0  0  0  0
   -2.0806    1.4828   -0.2949 H   0  0  0  0  0  0  0  0  0  0  0  0
   -0.1297    1.1977   -0.7716 H   0  0  0  0  0  0  0  0  0  0  0  0
    1.1173   -1.0794   -1.0286 H   0  0  0  0  0  0  0  0  0  0  0  0
    0.7886   -1.3521    0.7289 H   0  0  0  0  0  0  0  0  0  0  0  0
    2.8991    0.2432   -0.6230 R   0  0  0  0  0  0  0  0  0  0  0  0
    2.0253    1.2305    0.6735 H   0  0  0  0  0  0  0  0  0  0  0  0
    2.8180   -0.3938    1.0322 H   0  0  0  0  0  0  0  0  0  0  0  0
  1  2  1  0
  1  7  1  0
  1  8  1  0
  2  3  1  0
  2  9  1  0
  2 10  1  0
  3  4  1  0
  4  5  1  0
  4  1  1  0
  4 11  1  0
  5  6  1  0
  5 12  1  0
  5 13  1  0
  6 14  1  0
  6 15  1  0
  6 16  1  0
M  END
$$$$
