
     RDKit          3D

 14 14  0  0  0  0  0  0  0  0999 V2000
   -0.2118   -0.9951   -0.1417 C   0  0  0  0  0  0  0  0  0  0  0  0
   -1.5939   -0.8306   -0.1306 C   0  0  0  0  0  0  0  0  0  0  0  0
   -2.1857    0.4069    0.0214 C   0  0  0  0  0  0  0  0  0  0  0  0
   -1.3506    1.4573    0.1598 N   0  0  0  0  0  0  0  0  0  0  0  0
   -0.0149    1.3379    0.1541 C   0  0  0  0  0  0  0  0  0  0  0  0
    0.5941    0.1146    0.0039 C   0  0  0  0  0  0  0  0  0  0  0  0
    2.0650   -0.0793   -0.0103 C   0  0  0  0  0  0  0  0  0  0  0  0
    0.2251   -1.9889   -0.2641 H   0  0  0  0  0  0  0  0  0  0  0  0
   -2.2454   -1.6933   -0.2440 H   0  0  0  0  0  0  0  0  0  0  0  0
   -3.2765    0.5330    0.0298 H   0  0  0  0  0  0  0  0  0  0  0  0
    0.6583    2.1932    0.2667 H   0  0  0  0  0  0  0  0  0  0  0  0
    2.3654   -0.3275    1.0477 R   0  0  0  0  0  0  0  0  0  0  0  0
    2.6267    0.8225   -0.2798 H   0  0  0  0  0  0  0  0  0  0  0  0
    2.3443   -0.9506   -0.6129 H   0  0  0  0  0  0  0  0  0  0  0  0
  1  2  2  0
  1  8  1  0
  2  3  1  0
  2  9  1  0
  3  4  2  0
  3 10  1  0
  4  5  1  0
  5  6  2  0
  5 11  1  0
  6  7  1  0
  6  1  1  0
  7 12  1  0
  7 13  1  0
  7 14  1  0
M  END
$$$$
