
     RDKit          3D

 17 17  0  0  0  0  0  0  0  0999 V2000
    0.6434    1.1815    0.1512 C   0  0  0  0  0  0  0  0  0  0  0  0
    1.9612    1.2429    0.5646 C   0  0  0  0  0  0  0  0  0  0  0  0
    2.6811    0.1091    0.4713 N   0  0  0  0  0  0  0  0  0  0  0  0
    2.1397   -1.0370   -0.0050 C   0  0  0  0  0  0  0  0  0  0  0  0
    0.8226   -1.0984   -0.4181 C   0  0  0  0  0  0  0  0  0  0  0  0
    0.0503    0.0388   -0.3397 C   0  0  0  0  0  0  0  0  0  0  0  0
   -1.3766    0.0881   -0.7556 C   0  0  0  0  0  0  0  0  0  0  0  0
   -2.2119   -0.2606    0.4481 C   0  0  0  0  0  0  0  0  0  0  0  0
    0.0900    2.1254    0.2427 H   0  0  0  0  0  0  0  0  0  0  0  0
    2.3984    2.1663    0.9486 H   0  0  0  0  0  0  0  0  0  0  0  0
    2.7460   -1.9474   -0.0713 H   0  0  0  0  0  0  0  0  0  0  0  0
    0.3764   -2.0118   -0.8021 H   0  0  0  0  0  0  0  0  0  0  0  0
   -1.5962    1.0882   -1.1644 H   0  0  0  0  0  0  0  0  0  0  0  0
   -1.5703   -0.6822   -1.5288 H   0  0  0  0  0  0  0  0  0  0  0  0
   -3.2496   -0.3817    0.1117 R   0  0  0  0  0  0  0  0  0  0  0  0
   -2.1280    0.5426    1.2351 H   0  0  0  0  0  0  0  0  0  0  0  0
   -1.7765   -1.1637    0.9117 H   0  0  0  0  0  0  0  0  0  0  0  0
  1  2  2  0
  1  9  1  0
  2  3  1  0
  2 10  1  0
  3  4  2  0
  4  5  1  0
  4 11  1  0
  5  6  2  0
  5 12  1  0
  6  7  1  0
  6  1  1  0
  7  8  1  0
  7 13  1  0
  7 14  1  0
  8 15  1  0
  8 16  1  0
  8 17  1  0
M  END
$$$$
