
     RDKit          3D

 14 14  0  0  0  0  0  0  0  0999 V2000
    0.2831   -1.1889    0.1920 C   0  0  0  0  0  0  0  0  0  0  0  0
    1.6398   -0.9974    0.3238 C   0  0  0  0  0  0  0  0  0  0  0  0
    2.2391    0.1986    0.2336 N   0  0  0  0  0  0  0  0  0  0  0  0
    1.5195    1.3108    0.0015 C   0  0  0  0  0  0  0  0  0  0  0  0
    0.1552    1.1582   -0.1363 C   0  0  0  0  0  0  0  0  0  0  0  0
   -0.4854   -0.0596   -0.0480 C   0  0  0  0  0  0  0  0  0  0  0  0
   -1.9554   -0.1812   -0.2023 C   0  0  0  0  0  0  0  0  0  0  0  0
   -0.1589   -2.1740    0.2723 H   0  0  0  0  0  0  0  0  0  0  0  0
    2.2361   -1.8988    0.5133 H   0  0  0  0  0  0  0  0  0  0  0  0
    1.9744    2.2978   -0.0775 H   0  0  0  0  0  0  0  0  0  0  0  0
   -0.4283    2.0553   -0.3238 H   0  0  0  0  0  0  0  0  0  0  0  0
   -2.2777   -0.1553   -1.2599 R   0  0  0  0  0  0  0  0  0  0  0  0
   -2.3955    0.7294    0.2677 H   0  0  0  0  0  0  0  0  0  0  0  0
   -2.3460   -1.0950    0.2435 H   0  0  0  0  0  0  0  0  0  0  0  0
  1  2  2  0
  1  8  1  0
  2  3  1  0
  2  9  1  0
  3  4  2  0
  4  5  1  0
  4 10  1  0
  5  6  2  0
  5 11  1  0
  6  7  1  0
  6  1  1  0
  7 12  1  0
  7 13  1  0
  7 14  1  0
M  END
$$$$
