
     RDKit          3D

  9  8  0  0  0  0  0  0  0  0999 V2000
    1.3482    0.2563   -0.2863 N   0  0  0  0  0  0  0  0  0  0  0  0
    0.1273    0.3321    0.4196 C   0  0  0  0  0  0  0  0  0  0  0  0
    0.0641    1.0251    1.4565 O   0  0  0  0  0  0  0  0  0  0  0  0
   -1.0875   -0.3784   -0.0188 C   0  0  0  0  0  0  0  0  0  0  0  0
    1.6012    0.9709   -1.0195 H   0  0  0  0  0  0  0  0  0  0  0  0
    2.0548   -0.5094   -0.1147 H   0  0  0  0  0  0  0  0  0  0  0  0
   -0.7874   -1.3933   -0.3370 R   0  0  0  0  0  0  0  0  0  0  0  0
   -1.4957    0.1493   -0.9048 H   0  0  0  0  0  0  0  0  0  0  0  0
   -1.8250   -0.4525    0.8050 H   0  0  0  0  0  0  0  0  0  0  0  0
  1  2  1  0
  1  5  1  0
  1  6  1  0
  2  3  2  0
  2  4  1  0
  4  7  1  0
  4  8  1  0
  4  9  1  0
M  END
$$$$
