
     RDKit          3D

 19 18  0  0  0  0  0  0  0  0999 V2000
   -3.5917   -0.1925   -0.2590 N   0  0  0  0  0  0  0  0  0  0  0  0
   -2.1414    0.7638   -0.3803 S   0  0  0  0  0  0  0  0  0  0  0  0
   -2.1818    1.8488    0.6480 O   0  0  0  0  0  0  0  0  0  0  0  0
   -2.0780    1.3000   -1.7827 O   0  0  0  0  0  0  0  0  0  0  0  0
   -0.7710   -0.3432   -0.0823 C   0  0  0  0  0  0  0  0  0  0  0  0
    0.5431    0.4412   -0.1749 C   0  0  0  0  0  0  0  0  0  0  0  0
    1.6438   -0.5793    0.0914 C   0  0  0  0  0  0  0  0  0  0  0  0
    2.9873    0.0772    0.0268 C   0  0  0  0  0  0  0  0  0  0  0  0
   -3.4651   -0.7762    0.6216 H   0  0  0  0  0  0  0  0  0  0  0  0
   -3.5190   -0.8967   -1.0472 H   0  0  0  0  0  0  0  0  0  0  0  0
   -0.8818   -0.8346    0.9051 H   0  0  0  0  0  0  0  0  0  0  0  0
   -0.7201   -1.0919   -0.8987 H   0  0  0  0  0  0  0  0  0  0  0  0
    0.5807    1.2824    0.5091 H   0  0  0  0  0  0  0  0  0  0  0  0
    0.5947    0.7974   -1.2240 H   0  0  0  0  0  0  0  0  0  0  0  0
    1.4736   -1.1151    1.0280 H   0  0  0  0  0  0  0  0  0  0  0  0
    1.6131   -1.3440   -0.7232 H   0  0  0  0  0  0  0  0  0  0  0  0
    3.0252    0.7384   -0.8525 R   0  0  0  0  0  0  0  0  0  0  0  0
    3.1407    0.6711    0.9387 H   0  0  0  0  0  0  0  0  0  0  0  0
    3.7478   -0.7467   -0.0618 H   0  0  0  0  0  0  0  0  0  0  0  0
  1  2  1  0
  1  9  1  0
  1 10  1  0
  2  3  2  0
  2  4  2  0
  2  5  1  0
  5  6  1  0
  5 11  1  0
  5 12  1  0
  6  7  1  0
  6 13  1  0
  6 14  1  0
  7  8  1  0
  7 15  1  0
  7 16  1  0
  8 17  1  0
  8 18  1  0
  8 19  1  0
M  END
$$$$
