
     RDKit          3D

  9  9  0  0  0  0  0  0  0  0999 V2000
    0.7192   -0.4953    0.0115 C   0  0  0  0  0  0  0  0  0  0  0  0
    0.0402    0.8690    0.0660 C   0  0  0  0  0  0  0  0  0  0  0  0
   -0.7447   -0.4237   -0.1048 C   0  0  0  0  0  0  0  0  0  0  0  0
    1.1546   -0.7997    0.9621 R   0  0  0  0  0  0  0  0  0  0  0  0
    1.3296   -0.7520   -0.8713 H   0  0  0  0  0  0  0  0  0  0  0  0
   -0.0934    1.3620    1.0400 H   0  0  0  0  0  0  0  0  0  0  0  0
    0.2362    1.4914   -0.8160 H   0  0  0  0  0  0  0  0  0  0  0  0
   -1.3500   -0.7760    0.7639 H   0  0  0  0  0  0  0  0  0  0  0  0
   -1.2917   -0.4757   -1.0514 H   0  0  0  0  0  0  0  0  0  0  0  0
  1  2  1  0
  1  4  1  0
  1  5  1  0
  2  3  1  0
  2  6  1  0
  2  7  1  0
  3  1  1  0
  3  8  1  0
  3  9  1  0
M  END
$$$$
