
     RDKit          3D

 18 18  0  0  0  0  0  0  0  0999 V2000
   -0.7712   -0.3022    0.8655 C   0  0  0  0  0  0  0  0  0  0  0  0
   -1.9396    0.5719    0.4093 C   0  0  0  0  0  0  0  0  0  0  0  0
   -1.2711    0.4729   -0.9697 C   0  0  0  0  0  0  0  0  0  0  0  0
    0.0142    0.4809   -0.1654 C   0  0  0  0  0  0  0  0  0  0  0  0
    1.1674   -0.2495   -0.7793 C   0  0  0  0  0  0  0  0  0  0  0  0
    2.1092   -0.6084    0.3779 C   0  0  0  0  0  0  0  0  0  0  0  0
   -0.4693   -0.1595    1.9083 H   0  0  0  0  0  0  0  0  0  0  0  0
   -0.9617   -1.3406    0.5322 H   0  0  0  0  0  0  0  0  0  0  0  0
   -1.8124    1.5758    0.8627 H   0  0  0  0  0  0  0  0  0  0  0  0
   -2.9203    0.1146    0.4827 H   0  0  0  0  0  0  0  0  0  0  0  0
   -1.4375    1.3461   -1.6153 H   0  0  0  0  0  0  0  0  0  0  0  0
   -1.4823   -0.4911   -1.4375 H   0  0  0  0  0  0  0  0  0  0  0  0
    0.2372    1.4903    0.2407 H   0  0  0  0  0  0  0  0  0  0  0  0
    0.7839   -1.2014   -1.1905 H   0  0  0  0  0  0  0  0  0  0  0  0
    1.7160    0.3445   -1.5297 H   0  0  0  0  0  0  0  0  0  0  0  0
    3.0457   -1.0619    0.0060 R   0  0  0  0  0  0  0  0  0  0  0  0
    1.6184   -1.3037    1.0648 H   0  0  0  0  0  0  0  0  0  0  0  0
    2.3734    0.3213    0.9373 H   0  0  0  0  0  0  0  0  0  0  0  0
  1  2  1  0
  1  7  1  0
  1  8  1  0
  2  3  1  0
  2  9  1  0
  2 10  1  0
  3  4  1  0
  3 11  1  0
  3 12  1  0
  4  5  1  0
  4  1  1  0
  4 13  1  0
  5  6  1  0
  5 14  1  0
  5 15  1  0
  6 16  1  0
  6 17  1  0
  6 18  1  0
M  END
$$$$
