
     RDKit          3D

 15 15  0  0  0  0  0  0  0  0999 V2000
   -1.7199   -0.1794    0.8002 C   0  0  0  0  0  0  0  0  0  0  0  0
   -1.2033   -1.1732   -0.2194 C   0  0  0  0  0  0  0  0  0  0  0  0
   -0.2254   -0.4372    0.5729 C   0  0  0  0  0  0  0  0  0  0  0  0
    0.4972    0.7818    0.0751 C   0  0  0  0  0  0  0  0  0  0  0  0
    1.9588    0.5523   -0.1538 C   0  0  0  0  0  0  0  0  0  0  0  0
   -2.1788    0.7078    0.3518 H   0  0  0  0  0  0  0  0  0  0  0  0
   -2.1503   -0.5231    1.7443 H   0  0  0  0  0  0  0  0  0  0  0  0
   -1.4077   -2.2238    0.0445 H   0  0  0  0  0  0  0  0  0  0  0  0
   -1.3904   -0.9713   -1.3055 H   0  0  0  0  0  0  0  0  0  0  0  0
    0.3214   -0.9964    1.3509 H   0  0  0  0  0  0  0  0  0  0  0  0
    0.4056    1.5556    0.8930 H   0  0  0  0  0  0  0  0  0  0  0  0
    0.0369    1.2453   -0.8120 H   0  0  0  0  0  0  0  0  0  0  0  0
    2.3734   -0.1574    0.5799 R   0  0  0  0  0  0  0  0  0  0  0  0
    2.4848    1.5356    0.0181 H   0  0  0  0  0  0  0  0  0  0  0  0
    2.1976    0.2834   -1.2031 H   0  0  0  0  0  0  0  0  0  0  0  0
  1  2  1  0
  1  6  1  0
  1  7  1  0
  2  3  1  0
  2  8  1  0
  2  9  1  0
  3  4  1  0
  3  1  1  0
  3 10  1  0
  4  5  1  0
  4 11  1  0
  4 12  1  0
  5 13  1  0
  5 14  1  0
  5 15  1  0
M  END
$$$$
