
     RDKit          3D

 18 18  0  0  0  0  0  0  0  0999 V2000
   -0.6592   -0.6344   -0.9173 C   0  0  0  0  0  0  0  0  0  0  0  0
   -1.9928   -0.8140   -0.6066 C   0  0  0  0  0  0  0  0  0  0  0  0
   -2.5725   -0.0891    0.4145 C   0  0  0  0  0  0  0  0  0  0  0  0
   -1.7784    0.8134    1.1074 C   0  0  0  0  0  0  0  0  0  0  0  0
   -0.4457    0.9715    0.7733 C   0  0  0  0  0  0  0  0  0  0  0  0
    0.1525    0.2564   -0.2441 C   0  0  0  0  0  0  0  0  0  0  0  0
    1.5886    0.4295   -0.6010 C   0  0  0  0  0  0  0  0  0  0  0  0
    2.4778   -0.5099    0.1750 C   0  0  0  0  0  0  0  0  0  0  0  0
   -0.2365   -1.2201   -1.7248 H   0  0  0  0  0  0  0  0  0  0  0  0
   -2.6245   -1.5243   -1.1494 H   0  0  0  0  0  0  0  0  0  0  0  0
   -3.6149   -0.2248    0.6626 H   0  0  0  0  0  0  0  0  0  0  0  0
   -2.2175    1.3947    1.9164 H   0  0  0  0  0  0  0  0  0  0  0  0
    0.1804    1.6822    1.3186 H   0  0  0  0  0  0  0  0  0  0  0  0
    1.8904    1.4934   -0.4907 H   0  0  0  0  0  0  0  0  0  0  0  0
    1.6758    0.2024   -1.6944 H   0  0  0  0  0  0  0  0  0  0  0  0
    2.8859   -1.3002   -0.4911 R   0  0  0  0  0  0  0  0  0  0  0  0
    3.3351    0.0888    0.5464 H   0  0  0  0  0  0  0  0  0  0  0  0
    1.9555   -1.0153    1.0053 H   0  0  0  0  0  0  0  0  0  0  0  0
  1  2  2  0
  1  9  1  0
  2  3  1  0
  2 10  1  0
  3  4  2  0
  3 11  1  0
  4  5  1  0
  4 12  1  0
  5  6  2  0
  5 13  1  0
  6  7  1  0
  6  1  1  0
  7  8  1  0
  7 14  1  0
  7 15  1  0
  8 16  1  0
  8 17  1  0
  8 18  1  0
M  END
$$$$
