
     RDKit          3D

 10  9  0  0  0  0  0  0  0  0999 V2000
    1.5047    0.4278    0.1481 N   0  0  0  0  0  0  0  0  0  0  0  0
    0.1400   -0.6129   -0.1831 S   0  0  0  0  0  0  0  0  0  0  0  0
    0.2122   -1.2085   -1.5358 O   0  0  0  0  0  0  0  0  0  0  0  0
    0.0678   -1.6726    0.8816 O   0  0  0  0  0  0  0  0  0  0  0  0
   -1.2889    0.4485    0.0171 C   0  0  0  0  0  0  0  0  0  0  0  0
    2.0632    0.4894   -0.7087 H   0  0  0  0  0  0  0  0  0  0  0  0
    2.0003    0.0959    0.9895 H   0  0  0  0  0  0  0  0  0  0  0  0
   -1.1753    1.3950   -0.5276 R   0  0  0  0  0  0  0  0  0  0  0  0
   -1.2969    0.7176    1.1093 H   0  0  0  0  0  0  0  0  0  0  0  0
   -2.2272   -0.0801   -0.1905 H   0  0  0  0  0  0  0  0  0  0  0  0
  1  2  1  0
  1  6  1  0
  1  7  1  0
  2  3  2  0
  2  4  2  0
  2  5  1  0
  5  8  1  0
  5  9  1  0
  5 10  1  0
M  END
$$$$
