
     RDKit          3D

 15 15  0  0  0  0  0  0  0  0999 V2000
    0.0844    1.1849    0.0563 C   0  0  0  0  0  0  0  0  0  0  0  0
   -1.2773    1.2618    0.1033 C   0  0  0  0  0  0  0  0  0  0  0  0
   -2.0838    0.1389    0.0717 C   0  0  0  0  0  0  0  0  0  0  0  0
   -1.4646   -1.0899   -0.0104 C   0  0  0  0  0  0  0  0  0  0  0  0
   -0.0826   -1.1681   -0.0581 C   0  0  0  0  0  0  0  0  0  0  0  0
    0.7219   -0.0460   -0.0265 C   0  0  0  0  0  0  0  0  0  0  0  0
    2.2087   -0.1677   -0.0797 C   0  0  0  0  0  0  0  0  0  0  0  0
    0.7398    2.0559    0.0799 H   0  0  0  0  0  0  0  0  0  0  0  0
   -1.7470    2.2375    0.1678 H   0  0  0  0  0  0  0  0  0  0  0  0
   -3.1736    0.2403    0.1113 H   0  0  0  0  0  0  0  0  0  0  0  0
   -2.0528   -1.9969   -0.0380 H   0  0  0  0  0  0  0  0  0  0  0  0
    0.4301   -2.1281   -0.1232 H   0  0  0  0  0  0  0  0  0  0  0  0
    2.5365   -0.7461   -0.9654 R   0  0  0  0  0  0  0  0  0  0  0  0
    2.6047    0.8660   -0.1681 H   0  0  0  0  0  0  0  0  0  0  0  0
    2.5555   -0.6425    0.8793 H   0  0  0  0  0  0  0  0  0  0  0  0
  1  2  2  0
  1  8  1  0
  2  3  1  0
  2  9  1  0
  3  4  2  0
  3 10  1  0
  4  5  1  0
  4 11  1  0
  5  6  2  0
  5 12  1  0
  6  7  1  0
  6  1  1  0
  7 13  1  0
  7 14  1  0
  7 15  1  0
M  END
$$$$
