
     RDKit          3D

 15 15  0  0  0  0  0  0  0  0999 V2000
    0.5198   -0.8703   -0.5064 C   0  0  0  0  0  0  0  0  0  0  0  0
    1.6098   -0.0170    0.1167 C   0  0  0  0  0  0  0  0  0  0  0  0
    0.4960    0.8722    0.6769 C   0  0  0  0  0  0  0  0  0  0  0  0
   -0.3972    0.3494   -0.3833 C   0  0  0  0  0  0  0  0  0  0  0  0
   -1.7681   -0.1023    0.0203 C   0  0  0  0  0  0  0  0  0  0  0  0
    0.2003   -1.6754    0.1734 H   0  0  0  0  0  0  0  0  0  0  0  0
    0.6721   -1.1377   -1.5596 H   0  0  0  0  0  0  0  0  0  0  0  0
    2.1645   -0.5854    0.8745 H   0  0  0  0  0  0  0  0  0  0  0  0
    2.2051    0.4484   -0.6859 H   0  0  0  0  0  0  0  0  0  0  0  0
    0.8366    1.9327    0.5806 H   0  0  0  0  0  0  0  0  0  0  0  0
    0.2832    0.6151    1.7203 H   0  0  0  0  0  0  0  0  0  0  0  0
   -0.4311    0.9851   -1.2884 H   0  0  0  0  0  0  0  0  0  0  0  0
   -2.3448    0.6357    0.5878 R   0  0  0  0  0  0  0  0  0  0  0  0
   -1.7524   -1.0592    0.6111 H   0  0  0  0  0  0  0  0  0  0  0  0
   -2.2937   -0.3914   -0.9379 H   0  0  0  0  0  0  0  0  0  0  0  0
  1  2  1  0
  1  6  1  0
  1  7  1  0
  2  3  1  0
  2  8  1  0
  2  9  1  0
  3  4  1  0
  3 10  1  0
  3 11  1  0
  4  5  1  0
  4  1  1  0
  4 12  1  0
  5 13  1  0
  5 14  1  0
  5 15  1  0
M  END
$$$$
