
     RDKit          3D

 19 18  0  0  0  0  0  0  0  0999 V2000
   -1.8506   -0.2310    0.3599 N   0  0  0  0  0  0  0  0  0  0  0  0
   -2.6054    1.0023    0.4292 C   0  0  0  0  0  0  0  0  0  0  0  0
   -0.5246    0.0798   -0.0851 C   0  0  0  0  0  0  0  0  0  0  0  0
    0.3619   -1.1355   -0.1969 C   0  0  0  0  0  0  0  0  0  0  0  0
    1.7311   -0.7333   -0.6673 C   0  0  0  0  0  0  0  0  0  0  0  0
    2.3553    0.2384    0.3131 C   0  0  0  0  0  0  0  0  0  0  0  0
   -2.3249   -0.9735   -0.1967 H   0  0  0  0  0  0  0  0  0  0  0  0
   -3.2031    1.0774    1.3652 H   0  0  0  0  0  0  0  0  0  0  0  0
   -3.3107    1.1014   -0.4369 H   0  0  0  0  0  0  0  0  0  0  0  0
   -1.9491    1.8958    0.3747 H   0  0  0  0  0  0  0  0  0  0  0  0
   -0.5874    0.5760   -1.0846 H   0  0  0  0  0  0  0  0  0  0  0  0
   -0.0991    0.8244    0.6005 H   0  0  0  0  0  0  0  0  0  0  0  0
   -0.0648   -1.9379   -0.7914 H   0  0  0  0  0  0  0  0  0  0  0  0
    0.4830   -1.5343    0.8520 H   0  0  0  0  0  0  0  0  0  0  0  0
    2.3829   -1.5918   -0.8664 H   0  0  0  0  0  0  0  0  0  0  0  0
    1.5989   -0.1798   -1.6322 H   0  0  0  0  0  0  0  0  0  0  0  0
    2.3228    1.2853   -0.0707 R   0  0  0  0  0  0  0  0  0  0  0  0
    1.8458    0.2304    1.2946 H   0  0  0  0  0  0  0  0  0  0  0  0
    3.4380    0.0058    0.4391 H   0  0  0  0  0  0  0  0  0  0  0  0
  1  2  1  0
  1  3  1  0
  1  7  1  0
  2  8  1  0
  2  9  1  0
  2 10  1  0
  3  4  1  0
  3 11  1  0
  3 12  1  0
  4  5  1  0
  4 13  1  0
  4 14  1  0
  5  6  1  0
  5 15  1  0
  5 16  1  0
  6 17  1  0
  6 18  1  0
  6 19  1  0
M  END
$$$$
