
     RDKit          3D

 10  9  0  0  0  0  0  0  0  0999 V2000
    1.1727   -0.1638   -0.2222 C   0  0  0  0  0  0  0  0  0  0  0  0
   -0.0146    0.5795   -0.1911 N   0  0  0  0  0  0  0  0  0  0  0  0
   -1.1770   -0.0205    0.2948 C   0  0  0  0  0  0  0  0  0  0  0  0
    0.9668   -1.2362    0.0057 H   0  0  0  0  0  0  0  0  0  0  0  0
    1.7417   -0.1478   -1.1745 H   0  0  0  0  0  0  0  0  0  0  0  0
    1.8415    0.1820    0.6102 H   0  0  0  0  0  0  0  0  0  0  0  0
   -0.0588    1.4739   -0.6530 H   0  0  0  0  0  0  0  0  0  0  0  0
   -2.0823    0.5380    0.0110 R   0  0  0  0  0  0  0  0  0  0  0  0
   -1.0968   -0.1389    1.4081 H   0  0  0  0  0  0  0  0  0  0  0  0
   -1.2932   -1.0662   -0.0890 H   0  0  0  0  0  0  0  0  0  0  0  0
  1  2  1  0
  1  4  1  0
  1  5  1  0
  1  6  1  0
  2  3  1  0
  2  7  1  0
  3  8  1  0
  3  9  1  0
  3 10  1  0
M  END
$$$$
