
     RDKit          3D

 10 10  0  0  0  0  0  0  0  0999 V2000
   -0.6068   -0.5619    0.1976 C   0  0  0  0  0  0  0  0  0  0  0  0
   -0.4052    0.9318    0.0070 C   0  0  0  0  0  0  0  0  0  0  0  0
    0.4601    0.5673   -1.0542 O   0  0  0  0  0  0  0  0  0  0  0  0
    0.8718   -0.4807   -0.1957 C   0  0  0  0  0  0  0  0  0  0  0  0
   -1.2161   -0.9964   -0.6104 R   0  0  0  0  0  0  0  0  0  0  0  0
   -0.8017   -0.8987    1.2110 H   0  0  0  0  0  0  0  0  0  0  0  0
    0.2233    1.3350    0.8240 H   0  0  0  0  0  0  0  0  0  0  0  0
   -1.2803    1.5045   -0.2860 H   0  0  0  0  0  0  0  0  0  0  0  0
    1.2612   -1.3624   -0.6920 H   0  0  0  0  0  0  0  0  0  0  0  0
    1.4937   -0.0386    0.5987 H   0  0  0  0  0  0  0  0  0  0  0  0
  1  2  1  0
  1  5  1  0
  1  6  1  0
  2  3  1  0
  2  7  1  0
  2  8  1  0
  3  4  1  0
  4  1  1  0
  4  9  1  0
  4 10  1  0
M  END
$$$$
