
     RDKit          3D

 21 21  0  0  0  0  0  0  0  0999 V2000
    1.2202    0.9500    0.5942 C   0  0  0  0  0  0  0  0  0  0  0  0
    2.5129    1.1701    0.1621 C   0  0  0  0  0  0  0  0  0  0  0  0
    3.1680    0.2651   -0.6457 C   0  0  0  0  0  0  0  0  0  0  0  0
    2.4715   -0.8707   -1.0020 C   0  0  0  0  0  0  0  0  0  0  0  0
    1.1802   -1.0891   -0.5695 C   0  0  0  0  0  0  0  0  0  0  0  0
    0.5148   -0.1905    0.2389 C   0  0  0  0  0  0  0  0  0  0  0  0
   -0.8766   -0.3999    0.7201 C   0  0  0  0  0  0  0  0  0  0  0  0
   -1.8847    0.1886   -0.2518 C   0  0  0  0  0  0  0  0  0  0  0  0
   -3.2815   -0.0320    0.2499 C   0  0  0  0  0  0  0  0  0  0  0  0
    0.7099    1.6560    1.2239 H   0  0  0  0  0  0  0  0  0  0  0  0
    3.0345    2.0725    0.4589 H   0  0  0  0  0  0  0  0  0  0  0  0
    4.1822    0.4532   -0.9758 H   0  0  0  0  0  0  0  0  0  0  0  0
    2.9722   -1.5881   -1.6343 H   0  0  0  0  0  0  0  0  0  0  0  0
    0.6354   -1.9992   -0.8608 H   0  0  0  0  0  0  0  0  0  0  0  0
   -1.1141   -1.4836    0.8503 H   0  0  0  0  0  0  0  0  0  0  0  0
   -1.0482    0.0770    1.7057 H   0  0  0  0  0  0  0  0  0  0  0  0
   -1.7266    1.2995   -0.3073 H   0  0  0  0  0  0  0  0  0  0  0  0
   -1.7550   -0.1970   -1.2738 H   0  0  0  0  0  0  0  0  0  0  0  0
   -3.8633    0.9184    0.3031 R   0  0  0  0  0  0  0  0  0  0  0  0
   -3.8273   -0.8144   -0.3041 H   0  0  0  0  0  0  0  0  0  0  0  0
   -3.2243   -0.3859    1.3183 H   0  0  0  0  0  0  0  0  0  0  0  0
  1  2  2  0
  1 10  1  0
  2  3  1  0
  2 11  1  0
  3  4  2  0
  3 12  1  0
  4  5  1  0
  4 13  1  0
  5  6  2  0
  5 14  1  0
  6  7  1  0
  6  1  1  0
  7  8  1  0
  7 15  1  0
  7 16  1  0
  8  9  1  0
  8 17  1  0
  8 18  1  0
  9 19  1  0
  9 20  1  0
  9 21  1  0
M  END
$$$$
