
     RDKit          3D

 17 16  0  0  0  0  0  0  0  0999 V2000
    2.3953    0.3325    0.5780 S   0  0  0  0  0  0  0  0  0  0  0  0
    3.3106   -0.8539    0.3195 O   0  0  0  0  0  0  0  0  0  0  0  0
    2.5651    1.2750   -0.5795 O   0  0  0  0  0  0  0  0  0  0  0  0
    0.7403   -0.3296    0.6492 C   0  0  0  0  0  0  0  0  0  0  0  0
    0.1379   -0.0808   -0.7127 C   0  0  0  0  0  0  0  0  0  0  0  0
   -1.2751   -0.5832   -0.8303 C   0  0  0  0  0  0  0  0  0  0  0  0
   -2.1942    0.0671    0.1549 C   0  0  0  0  0  0  0  0  0  0  0  0
    2.7405    0.9758    1.7249 H   0  0  0  0  0  0  0  0  0  0  0  0
    0.7635   -1.4224    0.9050 H   0  0  0  0  0  0  0  0  0  0  0  0
    0.1502    0.1443    1.4606 H   0  0  0  0  0  0  0  0  0  0  0  0
    0.2327    0.9883   -0.9301 H   0  0  0  0  0  0  0  0  0  0  0  0
    0.7667   -0.6411   -1.4429 H   0  0  0  0  0  0  0  0  0  0  0  0
   -1.6297   -0.3467   -1.8429 H   0  0  0  0  0  0  0  0  0  0  0  0
   -1.3068   -1.6714   -0.6790 H   0  0  0  0  0  0  0  0  0  0  0  0
   -1.8997   -0.0902    1.2054 R   0  0  0  0  0  0  0  0  0  0  0  0
   -2.2844    1.1630    0.0065 H   0  0  0  0  0  0  0  0  0  0  0  0
   -3.2127   -0.3470    0.0135 H   0  0  0  0  0  0  0  0  0  0  0  0
  1  2  2  0
  1  3  2  0
  1  4  1  0
  1  8  1  0
  4  5  1  0
  4  9  1  0
  4 10  1  0
  5  6  1  0
  5 11  1  0
  5 12  1  0
  6  7  1  0
  6 13  1  0
  6 14  1  0
  7 15  1  0
  7 16  1  0
  7 17  1  0
M  END
$$$$
