
     RDKit          3D

 16 15  0  0  0  0  0  0  0  0999 V2000
    2.6297    0.0693    0.2156 S   0  0  0  0  0  0  0  0  0  0  0  0
    2.9634    0.6773   -1.1201 O   0  0  0  0  0  0  0  0  0  0  0  0
    3.5770    0.7990    1.1933 O   0  0  0  0  0  0  0  0  0  0  0  0
    1.0492    0.4566    0.7197 N   0  0  0  0  0  0  0  0  0  0  0  0
    0.0720   -0.3699    0.0349 C   0  0  0  0  0  0  0  0  0  0  0  0
   -1.2298    0.3388    0.0571 C   0  0  0  0  0  0  0  0  0  0  0  0
   -2.3702   -0.3857   -0.5432 C   0  0  0  0  0  0  0  0  0  0  0  0
    2.9246   -1.2260    0.2410 H   0  0  0  0  0  0  0  0  0  0  0  0
    0.8108    1.4487    0.6183 H   0  0  0  0  0  0  0  0  0  0  0  0
   -0.1299   -1.2382    0.8134 H   0  0  0  0  0  0  0  0  0  0  0  0
    0.3795   -0.8511   -0.8693 H   0  0  0  0  0  0  0  0  0  0  0  0
   -1.4744    0.7127    1.0588 H   0  0  0  0  0  0  0  0  0  0  0  0
   -1.0927    1.2746   -0.6006 H   0  0  0  0  0  0  0  0  0  0  0  0
   -3.2818    0.2066   -0.3271 R   0  0  0  0  0  0  0  0  0  0  0  0
   -2.5101   -1.4112   -0.0929 H   0  0  0  0  0  0  0  0  0  0  0  0
   -2.3172   -0.5013   -1.6389 H   0  0  0  0  0  0  0  0  0  0  0  0
  1  2  2  0
  1  3  2  0
  1  4  1  0
  1  8  1  0
  4  5  1  0
  4  9  1  0
  5  6  1  0
  5 10  1  0
  5 11  1  0
  6  7  1  0
  6 12  1  0
  6 13  1  0
  7 14  1  0
  7 15  1  0
  7 16  1  0
M  END
$$$$
