
     RDKit          3D

  8  8  0  0  0  0  0  0  0  0999 V2000
   -0.3600   -1.4236    2.4695 *   0  0  0  0  0  0  0  0  0  1  0  0
    0.5257   -1.4895    2.3018 C   0  0  0  0  0  0  0  0  0  0  0  0
    1.3846   -2.4627    1.9836 C   0  0  0  0  0  0  0  0  0  0  0  0
    1.2208   -3.3856    1.8546 *   0  0  0  0  0  0  0  0  0  2  0  0
    2.4243   -1.6271    1.9429 C   0  0  0  0  0  0  0  0  0  0  0  0
    3.6617   -1.7402    1.7050 O   0  0  0  0  0  0  0  0  0  0  0  0
    1.5496   -0.5945    2.2741 C   0  0  0  0  0  0  0  0  0  0  0  0
    1.7399    0.6253    2.4492 O   0  0  0  0  0  0  0  0  0  0  0  0
  1  2  1  0
  2  3  2  0
  3  4  1  0
  3  5  1  0
  5  6  2  0
  5  7  1  0
  7  8  2  0
  7  2  1  0
V    1 [*:1]
V    4 [*:2]
M  END
