
     RDKit          3D

  8  8  0  0  0  0  0  0  0  0999 V2000
   -0.2322   -1.5543    2.5098 *   0  0  0  0  0  0  0  0  0  1  0  0
    0.5484   -1.5842    2.3271 N   0  0  0  0  0  0  0  0  0  0  0  0
    1.5383   -2.5215    1.9107 C   0  0  0  0  0  0  0  0  0  0  0  0
    1.5553   -3.7474    1.6551 O   0  0  0  0  0  0  0  0  0  0  0  0
    2.4789   -1.4729    1.9134 N   0  0  0  0  0  0  0  0  0  0  0  0
    3.2666   -1.3968    1.7509 *   0  0  0  0  0  0  0  0  0  2  0  0
    1.5081   -0.5245    2.3278 C   0  0  0  0  0  0  0  0  0  0  0  0
    1.4832    0.7037    2.5857 O   0  0  0  0  0  0  0  0  0  0  0  0
  1  2  1  0
  2  3  1  0
  3  4  2  0
  3  5  1  0
  5  6  1  0
  5  7  1  0
  7  8  2  0
  7  2  1  0
V    1 [*:1]
V    6 [*:2]
M  END
