
     RDKit          3D

  8  8  0  0  0  0  0  0  0  0999 V2000
    0.8519   -0.4049    2.3406 *   0  0  0  0  0  0  0  0  0  2  0  0
    1.4487   -0.8449    1.8911 C   0  0  0  0  0  0  0  0  0  0  0  0
    0.8457   -2.0741    1.5450 O   0  0  0  0  0  0  0  0  0  0  0  0
    1.7348   -0.1007    0.5961 C   0  0  0  0  0  0  0  0  0  0  0  0
    2.3108   -0.5222    0.1587 *   0  0  0  0  0  0  0  0  0  1  0  0
    0.4838    0.3017   -0.1008 C   0  0  0  0  0  0  0  0  0  0  0  0
    0.7439    1.6235    0.0914 O   0  0  0  0  0  0  0  0  0  0  0  0
    1.9076    1.3575    0.7433 C   0  0  0  0  0  0  0  0  0  0  0  0
  1  2  1  0
  2  3  1  0
  2  4  1  0
  4  5  1  0
  4  6  1  0
  6  7  1  0
  7  8  1  0
  8  4  1  0
V    1 [*:2]
V    5 [*:1]
M  END
