
     RDKit          3D

  7  7  0  0  0  0  0  0  0  0999 V2000
    0.4891   -1.7497    2.9248 *   0  0  0  0  0  0  0  0  0  2  0  0
    1.1159   -1.9639    2.3607 C   0  0  0  0  0  0  0  0  0  0  0  0
    0.9556   -2.7611    1.3069 N   0  0  0  0  0  0  0  0  0  0  0  0
    2.1663   -2.8305    0.7015 N   0  0  0  0  0  0  0  0  0  0  0  0
    2.9845   -2.1083    1.3737 N   0  0  0  0  0  0  0  0  0  0  0  0
    3.8639   -2.0071    1.1471 *   0  0  0  0  0  0  0  0  0  1  0  0
    2.3803   -1.5668    2.3885 N   0  0  0  0  0  0  0  0  0  0  0  0
  1  2  1  0
  2  3  1  0
  3  4  2  0
  4  5  1  0
  5  6  1  0
  5  7  1  0
  7  2  2  0
V    1 [*:2]
V    6 [*:1]
M  END
