
     RDKit          3D

 10 11  0  0  0  0  0  0  0  0999 V2000
   -1.2087   -1.4700   -0.7196 *   0  0  0  0  0  0  0  0  0  1  0  0
   -0.3825   -1.0756   -0.8244 C   0  0  0  0  0  0  0  0  0  0  0  0
   -0.4597    0.1721   -0.0371 C   0  0  0  0  0  0  0  0  0  0  0  0
    0.1029   -0.1120    1.3576 C   0  0  0  0  0  0  0  0  0  0  0  0
   -0.5007   -1.3932    1.8247 C   0  0  0  0  0  0  0  0  0  0  0  0
    0.7074   -2.3265    1.8977 C   0  0  0  0  0  0  0  0  0  0  0  0
    1.4975   -1.7508    0.7131 C   0  0  0  0  0  0  0  0  0  0  0  0
    1.5232   -0.3565    1.1312 N   0  0  0  0  0  0  0  0  0  0  0  0
    0.7164   -2.0000   -0.5141 C   0  0  0  0  0  0  0  0  0  0  0  0
    1.2411   -2.0570   -1.2386 *   0  0  0  0  0  0  0  0  0  2  0  0
  1  2  1  0
  2  3  1  0
  3  4  1  0
  4  5  1  0
  5  6  1  0
  6  7  1  0
  7  8  1  0
  7  9  1  0
  9 10  1  0
  8  4  1  0
  9  2  1  0
V    1 [*:1]
V   10 [*:2]
M  END
