
     RDKit          3D

  8  8  0  0  0  0  0  0  0  0999 V2000
    0.1740   -2.4693    2.1582 *   0  0  0  0  0  0  0  0  0  1  0  0
    0.6495   -1.8192    1.6703 C   0  0  0  0  0  0  0  0  0  0  0  0
   -0.0377   -0.8418    1.0100 C   0  0  0  0  0  0  0  0  0  0  0  0
    1.2324    0.0512    0.3074 S   0  0  0  0  0  0  0  0  0  0  0  0
    2.5477   -0.8621    0.8892 C   0  0  0  0  0  0  0  0  0  0  0  0
    3.8380   -0.6911    0.6999 N   0  0  0  0  0  0  0  0  0  0  0  0
    1.9483   -1.8135    1.5983 N   0  0  0  0  0  0  0  0  0  0  0  0
    2.4338   -2.4383    2.0180 *   0  0  0  0  0  0  0  0  0  2  0  0
  1  2  1  0
  2  3  2  0
  3  4  1  0
  4  5  1  0
  5  6  2  0
  5  7  1  0
  7  8  1  0
  7  2  1  0
V    1 [*:1]
V    8 [*:2]
M  END
