
     RDKit          3D

  7  7  0  0  0  0  0  0  0  0999 V2000
   -0.4709   -1.0692    1.7092 *   0  0  0  0  0  0  0  0  0  1  0  0
    0.4639   -1.1463    1.7066 C   0  0  0  0  0  0  0  0  0  0  0  0
    1.1939   -2.1734    1.5566 C   0  0  0  0  0  0  0  0  0  0  0  0
    1.0879   -3.0572    1.4204 *   0  0  0  0  0  0  0  0  0  2  0  0
    2.3948   -1.4116    1.6849 C   0  0  0  0  0  0  0  0  0  0  0  0
    3.6158   -1.6565    1.6594 O   0  0  0  0  0  0  0  0  0  0  0  0
    1.5448   -0.2465    1.8548 C   0  0  0  0  0  0  0  0  0  0  0  0
  1  2  1  0
  2  3  2  0
  3  4  1  0
  3  5  1  0
  5  6  2  0
  5  7  1  0
  7  2  1  0
V    1 [*:1]
V    4 [*:2]
M  END
