
     RDKit          3D

  8  8  0  0  0  0  0  0  0  0999 V2000
   -0.1729   -3.1354    2.9890 *   0  0  0  0  0  0  0  0  0  1  0  0
   -0.0009   -2.3498    2.9321 N   0  0  0  0  0  0  0  0  0  0  0  0
    0.9067   -1.8782    2.1646 C   0  0  0  0  0  0  0  0  0  0  0  0
    2.0768   -2.5530    1.0117 S   0  0  0  0  0  0  0  0  0  0  0  0
    2.7065   -1.1164    1.8518 C   0  0  0  0  0  0  0  0  0  0  0  0
    4.1586   -0.6206    2.3635 S   0  0  0  0  0  0  0  0  0  0  0  0
    1.3946   -0.5873    1.8839 N   0  0  0  0  0  0  0  0  0  0  0  0
    1.0772    0.1427    1.7840 *   0  0  0  0  0  0  0  0  0  2  0  0
  1  2  1  0
  2  3  2  3
  3  4  1  0
  4  5  1  0
  5  6  2  0
  5  7  1  0
  7  8  1  0
  7  3  1  0
V    1 [*:1]
V    8 [*:2]
M  END
