
     RDKit          3D

  7  6  0  0  0  0  0  0  0  0999 V2000
   -0.0065   -2.3417    3.0989 *   0  0  0  0  0  0  0  0  0  1  0  0
    0.4772   -1.7428    2.7350 C   0  0  0  0  0  0  0  0  0  0  0  0
    0.0490   -0.5613    2.7807 O   0  0  0  0  0  0  0  0  0  0  0  0
    1.6923   -2.0760    2.1175 N   0  0  0  0  0  0  0  0  0  0  0  0
    2.5143   -1.0888    1.5039 C   0  0  0  0  0  0  0  0  0  0  0  0
    3.2552   -1.3255    1.1328 *   0  0  0  0  0  0  0  0  0  2  0  0
    2.1133    0.1003    1.5333 O   0  0  0  0  0  0  0  0  0  0  0  0
  1  2  1  0
  2  3  2  0
  2  4  1  0
  4  5  1  0
  5  6  1  0
  5  7  2  0
V    1 [*:1]
V    6 [*:2]
M  END
