
     RDKit          3D

  7  7  0  0  0  0  0  0  0  0999 V2000
    0.7088   -1.5427    2.7080 *   0  0  0  0  0  0  0  0  0  1  0  0
    0.9068   -1.2878    2.1315 C   0  0  0  0  0  0  0  0  0  0  0  0
    0.9300   -2.2569    1.5652 *   0  0  0  0  0  0  0  0  0  2  0  0
    2.1731   -0.7043    1.9036 N   0  0  0  0  0  0  0  0  0  0  0  0
    2.0732   -0.0420    0.5902 C   0  0  0  0  0  0  0  0  0  0  0  0
    0.7097   -0.4777    0.1449 C   0  0  0  0  0  0  0  0  0  0  0  0
   -0.0449   -0.8603    1.1915 O   0  0  0  0  0  0  0  0  0  0  0  0
  1  2  1  0
  2  3  1  0
  2  4  1  0
  4  5  1  0
  5  6  1  0
  6  7  1  0
  7  2  1  0
V    1 [*:1]
V    3 [*:2]
M  END
