
     RDKit          3D

  9  9  0  0  0  0  0  0  0  0999 V2000
   -0.4112   -0.4948    2.2508 *   0  0  0  0  0  0  0  0  0  1  0  0
   -0.2423   -0.1759    1.5558 C   0  0  0  0  0  0  0  0  0  0  0  0
    0.6179   -0.9845    0.5761 C   0  0  0  0  0  0  0  0  0  0  0  0
    1.7960   -1.4322    1.0333 O   0  0  0  0  0  0  0  0  0  0  0  0
    2.7271   -0.2027    0.9427 C   0  0  0  0  0  0  0  0  0  0  0  0
    3.7966   -0.0084    1.0607 O   0  0  0  0  0  0  0  0  0  0  0  0
    1.6346    1.1183    0.6059 C   0  0  0  0  0  0  0  0  0  0  0  0
    1.0666    0.7625    1.9025 C   0  0  0  0  0  0  0  0  0  0  0  0
    1.5414    0.2393    2.3955 *   0  0  0  0  0  0  0  0  0  2  0  0
  1  2  1  0
  2  3  1  0
  3  4  1  0
  4  5  1  0
  5  6  2  0
  5  7  1  0
  7  8  1  0
  8  9  1  0
  8  2  1  0
V    1 [*:1]
V    9 [*:2]
M  END
