
     RDKit          3D

  8  8  0  0  0  0  0  0  0  0999 V2000
   -0.2574    0.5121   -0.3245 *   0  0  0  0  0  0  0  0  0  1  0  0
    0.3418    0.1329    0.0280 C   0  0  0  0  0  0  0  0  0  0  0  0
    0.4629   -1.3753    0.1252 C   0  0  0  0  0  0  0  0  0  0  0  0
    1.4871   -1.5478    1.1057 N   0  0  0  0  0  0  0  0  0  0  0  0
    2.1758   -0.3696    1.2552 C   0  0  0  0  0  0  0  0  0  0  0  0
    3.2249   -0.1704    2.1406 O   0  0  0  0  0  0  0  0  0  0  0  0
    1.6459    0.7819    0.4302 C   0  0  0  0  0  0  0  0  0  0  0  0
    2.1385    0.6279   -0.3148 *   0  0  0  0  0  0  0  0  0  2  0  0
  1  2  1  0
  2  3  1  0
  3  4  1  0
  4  5  1  0
  5  6  2  0
  5  7  1  0
  7  8  1  0
  7  2  1  0
V    1 [*:1]
V    8 [*:2]
M  END
