
     RDKit          3D

 10 11  0  0  0  0  0  0  0  0999 V2000
    0.4032   -3.6405    2.3616 *   0  0  0  0  0  0  0  0  0  1  0  0
    0.6188   -2.9936    1.7793 C   0  0  0  0  0  0  0  0  0  0  0  0
    1.4661   -2.0178    2.0359 N   0  0  0  0  0  0  0  0  0  0  0  0
    1.7161   -1.1372    1.1487 N   0  0  0  0  0  0  0  0  0  0  0  0
    2.5037   -0.0207    1.0467 C   0  0  0  0  0  0  0  0  0  0  0  0
    3.0268    0.3183    1.6328 *   0  0  0  0  0  0  0  0  0  2  0  0
    2.3662    0.5568   -0.1904 C   0  0  0  0  0  0  0  0  0  0  0  0
    1.4809   -0.2120   -0.8657 N   0  0  0  0  0  0  0  0  0  0  0  0
    1.1078   -1.2234   -0.0334 C   0  0  0  0  0  0  0  0  0  0  0  0
    0.1571   -2.6303    0.1857 S   0  0  0  0  0  0  0  0  0  0  0  0
  1  2  1  0
  2  3  2  0
  3  4  1  0
  4  5  1  0
  5  6  1  0
  5  7  2  0
  7  8  1  0
  8  9  2  0
  9 10  1  0
  9  4  1  0
 10  2  1  0
V    1 [*:1]
V    6 [*:2]
M  END
