
     RDKit          3D

  5  4  0  0  0  0  0  0  0  0999 V2000
    0.7058   -1.1321    2.5333 *   0  0  0  0  0  0  0  0  0  1  0  0
    1.4055   -1.3855    2.6009 P   0  0  0  0  0  5  0  0  0  0  0  0
    1.7503   -2.9665    3.1223 O   0  0  0  0  0  0  0  0  0  0  0  0
    1.7422   -1.5345    1.4466 *   0  0  0  0  0  0  0  0  0  2  0  0
    2.5819   -0.5287    3.0032 O   0  0  0  0  0  0  0  0  0  0  0  0
  1  2  1  0
  2  3  1  0
  2  4  1  0
  2  5  2  0
V    1 [*:1]
V    4 [*:2]
M  END
