
     RDKit          3D

  8  8  0  0  0  0  0  0  0  0999 V2000
    1.7804   -3.1627    1.2235 *   0  0  0  0  0  0  0  0  0  1  0  0
    1.0981   -2.7861    0.7109 C   0  0  0  0  0  0  0  0  0  0  0  0
    1.3487   -1.3096    0.7352 C   0  0  0  0  0  0  0  0  0  0  0  0
    2.0161   -0.2712   -0.4402 S   0  0  0  0  0  0  0  0  0  0  0  0
    1.9349    1.2030    0.4183 C   0  0  0  0  0  0  0  0  0  0  0  0
    1.3819    0.8316    1.6098 C   0  0  0  0  0  0  0  0  0  0  0  0
    1.0835   -0.4653    1.7652 C   0  0  0  0  0  0  0  0  0  0  0  0
    0.7099   -0.8088    2.5382 *   0  0  0  0  0  0  0  0  0  2  0  0
  1  2  1  0
  2  3  1  0
  3  4  1  0
  4  5  1  0
  5  6  2  0
  6  7  1  0
  7  8  1  0
  7  3  2  0
V    1 [*:1]
V    8 [*:2]
M  END
