
     RDKit          3D

  6  5  0  0  0  0  0  0  0  0999 V2000
    2.6714   -3.1271    1.6221 *   0  0  0  0  0  0  0  0  0  1  0  0
    2.0891   -2.7369    1.2700 N   0  0  0  0  0  0  0  0  0  0  0  0
    1.8764   -1.3742    1.5593 C   0  0  0  0  0  0  0  0  0  0  0  0
    1.0020   -0.5606    0.6620 C   0  0  0  0  0  0  0  0  0  0  0  0
    2.4142   -0.8205    2.5704 N   0  0  0  0  0  0  0  0  0  0  0  0
    2.3085   -0.0714    2.7454 *   0  0  0  0  0  0  0  0  0  2  0  0
  1  2  1  0
  2  3  1  0
  3  4  1  0
  3  5  2  3
  5  6  1  0
V    1 [*:1]
V    6 [*:2]
M  END
