
     RDKit          3D

  9  9  0  0  0  0  0  0  0  0999 V2000
   -0.0276   -1.7366    0.1488 *   0  0  0  0  0  0  0  0  0  1  0  0
    0.5119   -1.3613    0.4676 C   0  0  0  0  0  0  0  0  0  0  0  0
    1.9333   -1.6751    0.5614 C   0  0  0  0  0  0  0  0  0  0  0  0
    2.2796   -2.2930    0.3002 *   0  0  0  0  0  0  0  0  0  2  0  0
    2.5148   -0.6985    1.5407 C   0  0  0  0  0  0  0  0  0  0  0  0
    3.5983   -0.8490    2.0940 O   0  0  0  0  0  0  0  0  0  0  0  0
    1.5339    0.3064    1.6615 N   0  0  0  0  0  0  0  0  0  0  0  0
    0.3015    0.0402    0.9786 C   0  0  0  0  0  0  0  0  0  0  0  0
   -0.6580    0.7172    0.7756 O   0  0  0  0  0  0  0  0  0  0  0  0
  1  2  1  0
  2  3  1  0
  3  4  1  0
  3  5  1  0
  5  6  2  0
  5  7  1  0
  7  8  1  0
  8  9  2  0
  8  2  1  0
V    1 [*:1]
V    4 [*:2]
M  END
