
     RDKit          3D

  7  6  0  0  0  0  0  0  0  0999 V2000
    1.5012   -1.6825    2.5836 *   0  0  0  0  0  0  0  0  0  2  0  0
    1.5134   -1.5402    1.9236 N   0  0  0  0  0  0  0  0  0  0  0  0
    0.3458   -0.9516    1.3545 C   0  0  0  0  0  0  0  0  0  0  0  0
    2.8939   -1.4973    0.9305 S   0  0  0  0  0  6  0  0  0  0  0  0
    3.2883   -0.6253    0.9133 *   0  0  0  0  0  0  0  0  0  1  0  0
    3.9313   -2.4306    1.5139 O   0  0  0  0  0  0  0  0  0  0  0  0
    2.6315   -1.8841   -0.4881 O   0  0  0  0  0  0  0  0  0  0  0  0
  1  2  1  0
  2  3  1  0
  2  4  1  0
  4  5  1  0
  4  6  2  0
  4  7  2  0
V    1 [*:2]
V    5 [*:1]
M  END
