
     RDKit          3D

  8  8  0  0  0  0  0  0  0  0999 V2000
    0.1127   -0.6834    2.4289 *   0  0  0  0  0  0  0  0  0  2  0  0
    0.7299   -0.9375    1.9428 C   0  0  0  0  0  0  0  0  0  0  0  0
    0.6138   -1.6215    0.7439 C   0  0  0  0  0  0  0  0  0  0  0  0
    1.8586   -1.8407    0.2804 N   0  0  0  0  0  0  0  0  0  0  0  0
    2.7625   -1.3380    1.1112 N   0  0  0  0  0  0  0  0  0  0  0  0
    3.5143   -1.3532    1.0380 *   0  0  0  0  0  0  0  0  0  1  0  0
    2.0936   -0.7781    2.1396 C   0  0  0  0  0  0  0  0  0  0  0  0
    2.6450   -0.2035    3.1190 O   0  0  0  0  0  0  0  0  0  0  0  0
  1  2  1  0
  2  3  2  0
  3  4  1  0
  4  5  1  0
  5  6  1  0
  5  7  1  0
  7  8  2  0
  7  2  1  0
V    1 [*:2]
V    6 [*:1]
M  END
