
     RDKit          3D

  9  9  0  0  0  0  0  0  0  0999 V2000
   -0.8674   -1.2424    1.2045 *   0  0  0  0  0  0  0  0  0  2  0  0
    0.0767   -1.0120    1.1393 C   0  0  0  0  0  0  0  0  0  0  0  0
    0.7646   -1.7968    0.2824 C   0  0  0  0  0  0  0  0  0  0  0  0
    2.1088   -1.5480    0.1222 C   0  0  0  0  0  0  0  0  0  0  0  0
    2.6685   -0.5234    0.8380 C   0  0  0  0  0  0  0  0  0  0  0  0
    3.5340   -0.3465    0.7491 *   0  0  0  0  0  0  0  0  0  1  0  0
    1.9038    0.2591    1.7142 C   0  0  0  0  0  0  0  0  0  0  0  0
    2.4052    1.1948    2.3705 O   0  0  0  0  0  0  0  0  0  0  0  0
    0.5751   -0.0356    1.8310 N   0  0  0  0  0  0  0  0  0  0  0  0
  1  2  1  0
  2  3  2  0
  3  4  1  0
  4  5  2  0
  5  6  1  0
  5  7  1  0
  7  8  2  0
  7  9  1  0
  9  2  1  0
V    1 [*:2]
V    6 [*:1]
M  END
