
     RDKit          3D

  8  8  0  0  0  0  0  0  0  0999 V2000
    0.6293   -2.1381    3.6404 *   0  0  0  0  0  0  0  0  0  1  0  0
    0.9047   -1.9829    3.2164 S   0  0  0  0  0  0  0  0  0  0  0  0
    0.9417   -1.5971    1.4731 C   0  0  0  0  0  0  0  0  0  0  0  0
    0.5813   -2.2845    1.0381 *   0  0  0  0  0  0  0  0  0  2  0  0
    2.2641   -1.4663    1.0818 O   0  0  0  0  0  0  0  0  0  0  0  0
    2.3881   -0.2817    0.4168 C   0  0  0  0  0  0  0  0  0  0  0  0
    0.9767    0.1126    0.0940 C   0  0  0  0  0  0  0  0  0  0  0  0
    0.2290   -0.4981    1.0961 O   0  0  0  0  0  0  0  0  0  0  0  0
  1  2  1  0
  2  3  1  0
  3  4  1  0
  3  5  1  0
  5  6  1  0
  6  7  1  0
  7  8  1  0
  8  3  1  0
V    1 [*:1]
V    4 [*:2]
M  END
