
     RDKit          3D

  9  9  0  0  0  0  0  0  0  0999 V2000
   -0.0836   -0.3301    3.4222 *   0  0  0  0  0  0  0  0  0  1  0  0
    0.4469   -0.3589    2.6907 C   0  0  0  0  0  0  0  0  0  0  0  0
    1.1435   -1.4480    2.5441 N   0  0  0  0  0  0  0  0  0  0  0  0
    2.0293   -1.7795    1.5273 N   0  0  0  0  0  0  0  0  0  0  0  0
    2.2639   -1.0622    0.5133 C   0  0  0  0  0  0  0  0  0  0  0  0
    2.8910   -1.4512   -0.0410 *   0  0  0  0  0  0  0  0  0  2  0  0
    1.7799    0.1649   -0.0859 C   0  0  0  0  0  0  0  0  0  0  0  0
    0.5126    0.7315    0.4695 C   0  0  0  0  0  0  0  0  0  0  0  0
    0.4535    0.8903    1.9376 C   0  0  0  0  0  0  0  0  0  0  0  0
  1  2  1  0
  2  3  2  0
  3  4  1  0
  4  5  2  0
  5  6  1  0
  5  7  1  0
  7  8  1  0
  8  9  1  0
  9  2  1  0
V    1 [*:1]
V    6 [*:2]
M  END
