
     RDKit          3D

  9  9  0  0  0  0  0  0  0  0999 V2000
    0.4286   -2.0526   -0.0852 *   0  0  0  0  0  0  0  0  0  2  0  0
    0.4088   -1.3811    0.2978 C   0  0  0  0  0  0  0  0  0  0  0  0
    1.1149   -1.3494    1.5715 C   0  0  0  0  0  0  0  0  0  0  0  0
    1.0069   -2.1848    2.4536 O   0  0  0  0  0  0  0  0  0  0  0  0
    1.9734   -0.1749    1.6467 C   0  0  0  0  0  0  0  0  0  0  0  0
    1.7816    0.5033    0.4101 N   0  0  0  0  0  0  0  0  0  0  0  0
    2.1895    1.2609    0.1871 *   0  0  0  0  0  0  0  0  0  1  0  0
    0.8731   -0.1689   -0.4098 C   0  0  0  0  0  0  0  0  0  0  0  0
    0.4646    0.1689   -1.6088 N   0  0  0  0  0  0  0  0  0  0  0  0
  1  2  1  0
  2  3  1  0
  3  4  2  0
  3  5  1  0
  5  6  1  0
  6  7  1  0
  6  8  1  0
  8  9  2  0
  8  2  1  0
V    1 [*:2]
V    7 [*:1]
M  END
