
     RDKit          3D

  7  7  0  0  0  0  0  0  0  0999 V2000
    1.5753   -2.2584    3.3488 *   0  0  0  0  0  0  0  0  0  1  0  0
    1.6790   -2.3030    2.4383 C   0  0  0  0  0  0  0  0  0  0  0  0
    0.9512   -3.0311    1.5852 N   0  0  0  0  0  0  0  0  0  0  0  0
    1.4781   -2.7646    0.3888 N   0  0  0  0  0  0  0  0  0  0  0  0
    2.4953   -1.8987    0.5261 N   0  0  0  0  0  0  0  0  0  0  0  0
    2.6196   -1.6125    1.7980 N   0  0  0  0  0  0  0  0  0  0  0  0
    3.1572   -1.1192    2.1180 *   0  0  0  0  0  0  0  0  0  2  0  0
  1  2  1  0
  2  3  2  0
  3  4  1  0
  4  5  2  0
  5  6  1  0
  6  7  1  0
  6  2  1  0
V    1 [*:1]
V    7 [*:2]
M  END
