
     RDKit          3D

  9  9  0  0  0  0  0  0  0  0999 V2000
    0.9209   -2.7535    1.9733 *   0  0  0  0  0  0  0  0  0  1  0  0
    1.0855   -2.0018    1.6068 C   0  0  0  0  0  0  0  0  0  0  0  0
    0.8360   -1.7799    0.2693 C   0  0  0  0  0  0  0  0  0  0  0  0
    1.0871   -0.5826   -0.3603 C   0  0  0  0  0  0  0  0  0  0  0  0
    1.6242    0.4382    0.4355 C   0  0  0  0  0  0  0  0  0  0  0  0
    1.8644    0.2347    1.7095 N   0  0  0  0  0  0  0  0  0  0  0  0
    2.2093    0.9155    2.1852 *   0  0  0  0  0  0  0  0  0  2  0  0
    1.6205   -0.9139    2.3008 C   0  0  0  0  0  0  0  0  0  0  0  0
    1.8602   -1.0751    3.5140 O   0  0  0  0  0  0  0  0  0  0  0  0
  1  2  1  0
  2  3  2  0
  3  4  1  0
  4  5  2  0
  5  6  1  0
  6  7  1  0
  6  8  1  0
  8  9  2  0
  8  2  1  0
V    1 [*:1]
V    7 [*:2]
M  END
