
     RDKit          3D

  5  4  0  0  0  0  0  0  0  0999 V2000
    1.3828    0.1941    2.0858 *   0  0  0  0  0  0  0  0  0  1  0  0
    1.8538   -0.6821    1.5996 C   0  0  0  0  0  0  0  0  0  0  0  0
    1.2063   -1.7877    2.3581 C   0  0  0  0  0  0  0  0  0  0  0  0
    1.2174   -0.4488    0.3916 O   0  0  0  0  0  0  0  0  0  0  0  0
    2.5223   -0.4554    1.7704 *   0  0  0  0  0  0  0  0  0  2  0  0
  1  2  1  0
  2  3  1  0
  2  4  1  0
  2  5  1  0
V    1 [*:1]
V    5 [*:2]
M  END
