
     RDKit          3D

  8  8  0  0  0  0  0  0  0  0999 V2000
    0.2936   -2.1769    1.6520 *   0  0  0  0  0  0  0  0  0  2  0  0
    0.5707   -1.4588    1.4512 C   0  0  0  0  0  0  0  0  0  0  0  0
    0.8312   -0.7058    2.7021 N   0  0  0  0  0  0  0  0  0  0  0  0
    2.0313   -0.4470    2.7618 C   0  0  0  0  0  0  0  0  0  0  0  0
    2.3821    0.0905    3.5997 *   0  0  0  0  0  0  0  0  0  1  0  0
    2.8002   -0.8614    1.7691 O   0  0  0  0  0  0  0  0  0  0  0  0
    1.9489   -1.5366    0.8534 C   0  0  0  0  0  0  0  0  0  0  0  0
    2.2893   -2.0729   -0.2129 O   0  0  0  0  0  0  0  0  0  0  0  0
  1  2  1  0
  2  3  1  0
  3  4  2  0
  4  5  1  0
  4  6  1  0
  6  7  1  0
  7  8  2  0
  7  2  1  0
V    1 [*:2]
V    5 [*:1]
M  END
