
     RDKit          3D

  9  9  0  0  0  0  0  0  0  0999 V2000
    0.2572   -1.9143    0.8423 *   0  0  0  0  0  0  0  0  0  1  0  0
    0.7986   -1.2811    1.0159 C   0  0  0  0  0  0  0  0  0  0  0  0
    0.4147   -0.4172    2.1224 C   0  0  0  0  0  0  0  0  0  0  0  0
    2.0768    0.5486    2.1171 S   0  0  0  0  0  4  0  0  0  0  0  0
    1.7837    1.9164    2.6549 O   0  0  0  0  0  0  0  0  0  0  0  0
    2.6830    0.7590    0.3188 C   0  0  0  0  0  0  0  0  0  0  0  0
    1.3556    0.8985   -0.2715 C   0  0  0  0  0  0  0  0  0  0  0  0
    0.8060   -0.4167   -0.0987 N   0  0  0  0  0  0  0  0  0  0  0  0
    0.1107   -0.5193   -0.5223 *   0  0  0  0  0  0  0  0  0  2  0  0
  1  2  1  0
  2  3  1  0
  3  4  1  0
  4  5  2  0
  4  6  1  0
  6  7  1  0
  7  8  1  0
  8  9  1  0
  8  2  1  0
V    1 [*:1]
V    9 [*:2]
M  END
