
     RDKit          3D

  7  7  0  0  0  0  0  0  0  0999 V2000
    0.2344   -2.1543    1.8426 *   0  0  0  0  0  0  0  0  0  1  0  0
    0.7950   -1.7557    2.1773 C   0  0  0  0  0  0  0  0  0  0  0  0
    1.0649   -0.4925    1.4305 C   0  0  0  0  0  0  0  0  0  0  0  0
    2.3194   -0.5100    1.1206 C   0  0  0  0  0  0  0  0  0  0  0  0
    2.7843    0.1829    0.6303 *   0  0  0  0  0  0  0  0  0  2  0  0
    2.9061   -1.6722    1.5951 N   0  0  0  0  0  0  0  0  0  0  0  0
    2.0868   -2.3947    2.1915 N   0  0  0  0  0  0  0  0  0  0  0  0
  1  2  1  0
  2  3  1  0
  3  4  2  0
  4  5  1  0
  4  6  1  0
  6  7  2  0
  7  2  1  0
V    1 [*:1]
V    5 [*:2]
M  END
