
     RDKit          3D

  8  8  0  0  0  0  0  0  0  0999 V2000
    0.3483   -1.5326    2.0070 *   0  0  0  0  0  0  0  0  0  1  0  0
    0.8160   -1.0695    0.9411 C   0  0  0  0  0  0  0  0  0  0  0  0
    1.3354   -2.3278    0.5778 C   0  0  0  0  0  0  0  0  0  0  0  0
    2.5623   -2.3965    0.9733 N   0  0  0  0  0  0  0  0  0  0  0  0
    2.9705   -1.2255    1.6204 N   0  0  0  0  0  0  0  0  0  0  0  0
    3.7159   -1.0947    1.9352 *   0  0  0  0  0  0  0  0  0  2  0  0
    1.8469   -0.3367    1.6147 C   0  0  0  0  0  0  0  0  0  0  0  0
    1.7942    0.8098    2.0915 O   0  0  0  0  0  0  0  0  0  0  0  0
  1  2  1  0
  2  3  1  0
  3  4  2  0
  4  5  1  0
  5  6  1  0
  5  7  1  0
  7  8  2  0
  7  2  1  0
V    1 [*:1]
V    6 [*:2]
M  END
