
     RDKit          3D

 10 10  0  0  0  0  0  0  0  0999 V2000
    0.9538   -2.8977    0.1873 *   0  0  0  0  0  0  0  0  0  1  0  0
    1.0860   -2.1221    0.5204 C   0  0  0  0  0  0  0  0  0  0  0  0
    0.7669   -1.8193    1.7621 C   0  0  0  0  0  0  0  0  0  0  0  0
    1.0098   -0.4780    2.2956 C   0  0  0  0  0  0  0  0  0  0  0  0
    0.7054   -0.1958    3.4738 O   0  0  0  0  0  0  0  0  0  0  0  0
    1.6261    0.5769    1.4402 C   0  0  0  0  0  0  0  0  0  0  0  0
    1.9052    0.2066    0.2550 C   0  0  0  0  0  0  0  0  0  0  0  0
    2.3389    0.9181   -0.3760 *   0  0  0  0  0  0  0  0  0  2  0  0
    1.7029   -1.0634   -0.3332 C   0  0  0  0  0  0  0  0  0  0  0  0
    2.0230   -1.3080   -1.5231 O   0  0  0  0  0  0  0  0  0  0  0  0
  1  2  1  0
  2  3  2  0
  3  4  1  0
  4  5  2  0
  4  6  1  0
  6  7  2  0
  7  8  1  0
  7  9  1  0
  9 10  2  0
  9  2  1  0
V    1 [*:1]
V    8 [*:2]
M  END
