
     RDKit          3D

  8  7  0  0  0  0  0  0  0  0999 V2000
    1.4119   -2.8145    2.7298 *   0  0  0  0  0  0  0  0  0  2  0  0
    0.9878   -2.2215    2.1516 C   0  0  0  0  0  0  0  0  0  0  0  0
   -0.2629   -1.9647    2.6692 F   0  0  0  0  0  0  0  0  0  0  0  0
    0.9743   -2.8158    0.9327 F   0  0  0  0  0  0  0  0  0  0  0  0
    2.0450   -0.7934    2.2199 S   0  0  0  0  0  6  0  0  0  0  0  0
    2.0416   -0.5331    3.1044 *   0  0  0  0  0  0  0  0  0  1  0  0
    1.5167    0.2692    1.3296 O   0  0  0  0  0  0  0  0  0  0  0  0
    3.4322   -1.2243    1.8434 O   0  0  0  0  0  0  0  0  0  0  0  0
  1  2  1  0
  2  3  1  0
  2  4  1  0
  2  5  1  0
  5  6  1  0
  5  7  2  0
  5  8  2  0
V    1 [*:2]
V    6 [*:1]
M  END
