
     RDKit          3D

  5  5  0  0  0  0  0  0  0  0999 V2000
    0.9029   -2.4490    3.6429 *   0  0  0  0  0  0  0  0  0  1  0  0
    1.4902   -2.3316    2.9898 C   0  0  0  0  0  0  0  0  0  0  0  0
    1.0251   -1.9802    1.7095 N   0  0  0  0  0  0  0  0  0  0  0  0
    1.6408   -0.9518    2.5675 C   0  0  0  0  0  0  0  0  0  0  0  0
    1.6962   -0.1665    2.2568 *   0  0  0  0  0  0  0  0  0  2  0  0
  1  2  1  0
  2  3  1  0
  3  4  2  0
  4  5  1  0
  4  2  1  0
V    1 [*:1]
V    5 [*:2]
M  END
