
     RDKit          3D

  8  8  0  0  0  0  0  0  0  0999 V2000
    0.0595   -0.4332    2.5329 *   0  0  0  0  0  0  0  0  0  1  0  0
    0.6821   -0.7674    2.1209 N   0  0  0  0  0  0  0  0  0  0  0  0
    0.4933   -1.5370    1.0351 C   0  0  0  0  0  0  0  0  0  0  0  0
    1.7357   -1.9052    0.6284 N   0  0  0  0  0  0  0  0  0  0  0  0
    2.6494   -1.3843    1.4300 N   0  0  0  0  0  0  0  0  0  0  0  0
    3.4187   -1.4502    1.4034 *   0  0  0  0  0  0  0  0  0  2  0  0
    1.9902   -0.6686    2.3691 C   0  0  0  0  0  0  0  0  0  0  0  0
    2.4765   -0.0031    3.3354 O   0  0  0  0  0  0  0  0  0  0  0  0
  1  2  1  0
  2  3  1  0
  3  4  2  0
  4  5  1  0
  5  6  1  0
  5  7  1  0
  7  8  2  0
  7  2  1  0
V    1 [*:1]
V    6 [*:2]
M  END
