
     RDKit          3D

  9 10  0  0  0  0  0  0  0  0999 V2000
    0.2653   -2.1426    0.7706 *   0  0  0  0  0  0  0  0  0  2  0  0
    0.1664   -1.3485    1.0892 C   0  0  0  0  0  0  0  0  0  0  0  0
   -0.2770   -0.3426    0.0693 C   0  0  0  0  0  0  0  0  0  0  0  0
    1.0760    0.1979   -0.0472 C   0  0  0  0  0  0  0  0  0  0  0  0
    1.3366    1.5710    0.4275 C   0  0  0  0  0  0  0  0  0  0  0  0
    1.7026    1.5008    1.8351 N   0  0  0  0  0  0  0  0  0  0  0  0
    1.8486    2.0045    2.1828 *   0  0  0  0  0  0  0  0  0  1  0  0
    1.7932    0.1448    2.2341 C   0  0  0  0  0  0  0  0  0  0  0  0
    1.5824   -0.7217    0.9955 C   0  0  0  0  0  0  0  0  0  0  0  0
  1  2  1  0
  2  3  1  0
  3  4  1  0
  4  5  1  0
  5  6  1  0
  6  7  1  0
  6  8  1  0
  8  9  1  0
  9  2  1  0
  9  4  1  0
V    1 [*:2]
V    7 [*:1]
M  END
