
     RDKit          3D

  8  8  0  0  0  0  0  0  0  0999 V2000
   -0.0989   -1.2440    2.5298 *   0  0  0  0  0  0  0  0  0  2  0  0
    0.0329   -1.1125    1.6300 C   0  0  0  0  0  0  0  0  0  0  0  0
    1.2348   -1.0901    1.1541 C   0  0  0  0  0  0  0  0  0  0  0  0
    1.5981   -0.8899   -0.2602 C   0  0  0  0  0  0  0  0  0  0  0  0
    3.0377   -0.9499   -0.2597 O   0  0  0  0  0  0  0  0  0  0  0  0
    3.3992   -1.1590    1.0153 C   0  0  0  0  0  0  0  0  0  0  0  0
    4.3274   -1.2489    1.3524 *   0  0  0  0  0  0  0  0  0  1  0  0
    2.4837   -1.2496    1.8606 N   0  0  0  0  0  0  0  0  0  0  0  0
  1  2  1  0
  2  3  2  3
  3  4  1  0
  4  5  1  0
  5  6  1  0
  6  7  1  0
  6  8  2  0
  8  3  1  0
V    1 [*:2]
V    7 [*:1]
M  END
