
     RDKit          3D

 10 10  0  0  0  0  0  0  0  0999 V2000
   -0.6507   -1.8204    0.7582 *   0  0  0  0  0  0  0  0  0  1  0  0
    0.1152   -1.4601    0.8532 C   0  0  0  0  0  0  0  0  0  0  0  0
    1.2086   -2.1819    1.1304 C   0  0  0  0  0  0  0  0  0  0  0  0
    2.5022   -1.5315    1.2861 C   0  0  0  0  0  0  0  0  0  0  0  0
    3.5306   -2.2092    1.5467 O   0  0  0  0  0  0  0  0  0  0  0  0
    2.5995   -0.0825    1.1373 C   0  0  0  0  0  0  0  0  0  0  0  0
    3.3778    0.3346    1.2280 *   0  0  0  0  0  0  0  0  0  2  0  0
    1.4987    0.6199    0.8609 C   0  0  0  0  0  0  0  0  0  0  0  0
    0.1965   -0.0120    0.7017 C   0  0  0  0  0  0  0  0  0  0  0  0
   -0.8095    0.6966    0.4415 O   0  0  0  0  0  0  0  0  0  0  0  0
  1  2  1  0
  2  3  2  0
  3  4  1  0
  4  5  2  0
  4  6  1  0
  6  7  1  0
  6  8  2  0
  8  9  1  0
  9 10  2  0
  9  2  1  0
V    1 [*:1]
V    7 [*:2]
M  END
