
     RDKit          3D

  9  9  0  0  0  0  0  0  0  0999 V2000
   -0.5772   -1.4676    1.7647 *   0  0  0  0  0  0  0  0  0  1  0  0
    0.2598   -1.2406    1.3018 C   0  0  0  0  0  0  0  0  0  0  0  0
    1.4048   -1.7991    1.7627 C   0  0  0  0  0  0  0  0  0  0  0  0
    2.5851   -1.4670    1.0948 C   0  0  0  0  0  0  0  0  0  0  0  0
    4.0255   -2.0741    1.5544 S   0  0  0  0  0  0  0  0  0  0  0  0
    2.4973   -0.6028    0.0254 C   0  0  0  0  0  0  0  0  0  0  0  0
    1.2599   -0.0895   -0.3591 C   0  0  0  0  0  0  0  0  0  0  0  0
    1.2084    0.4480   -1.0250 *   0  0  0  0  0  0  0  0  0  2  0  0
    0.1613   -0.4305    0.3027 O   0  0  0  0  0  0  0  0  0  0  0  0
  1  2  1  0
  2  3  2  0
  3  4  1  0
  4  5  2  0
  4  6  1  0
  6  7  2  0
  7  8  1  0
  7  9  1  0
  9  2  1  0
V    1 [*:1]
V    8 [*:2]
M  END
