
     RDKit          3D

  5  5  0  0  0  0  0  0  0  0999 V2000
    1.3962   -1.3189    3.1878 *   0  0  0  0  0  0  0  0  0  1  0  0
    1.7635   -1.5044    2.4436 C   0  0  0  0  0  0  0  0  0  0  0  0
    0.7868   -1.4246    1.2850 C   0  0  0  0  0  0  0  0  0  0  0  0
    1.8336   -0.3798    1.4062 C   0  0  0  0  0  0  0  0  0  0  0  0
    2.5044   -0.3684    0.9051 *   0  0  0  0  0  0  0  0  0  2  0  0
  1  2  1  0
  2  3  1  0
  3  4  1  0
  4  5  1  0
  4  2  1  0
V    1 [*:1]
V    5 [*:2]
M  END
