
     RDKit          3D

 10 11  0  0  0  0  0  0  0  0999 V2000
   -1.1947   -3.4037   -0.0632 *   0  0  0  0  0  0  0  0  0  1  0  0
   -0.6526   -2.8052    0.0504 C   0  0  0  0  0  0  0  0  0  0  0  0
   -0.5112   -1.7964   -1.1278 C   0  0  0  0  0  0  0  0  0  0  0  0
   -1.4261   -0.7131   -0.6732 C   0  0  0  0  0  0  0  0  0  0  0  0
   -1.3166   -0.6971    0.7257 N   0  0  0  0  0  0  0  0  0  0  0  0
   -1.6073    0.1013    1.8396 C   0  0  0  0  0  0  0  0  0  0  0  0
   -1.4434   -0.6842    2.9172 C   0  0  0  0  0  0  0  0  0  0  0  0
   -1.4832   -0.4259    3.7822 *   0  0  0  0  0  0  0  0  0  2  0  0
   -1.0628   -1.9120    2.5571 N   0  0  0  0  0  0  0  0  0  0  0  0
   -0.9864   -1.8925    1.1979 C   0  0  0  0  0  0  0  0  0  0  0  0
  1  2  1  0
  2  3  1  0
  3  4  1  0
  4  5  1  0
  5  6  1  0
  6  7  2  0
  7  8  1  0
  7  9  1  0
  9 10  2  0
 10  2  1  0
 10  5  1  0
V    1 [*:1]
V    8 [*:2]
M  END
