
     RDKit          3D

  7  7  0  0  0  0  0  0  0  0999 V2000
    0.3240   -0.3437    1.9323 *   0  0  0  0  0  0  0  0  0  1  0  0
    0.9002   -1.0395    1.6608 C   0  0  0  0  0  0  0  0  0  0  0  0
    0.9085   -1.2145    0.2084 C   0  0  0  0  0  0  0  0  0  0  0  0
    2.3026   -1.1075   -0.1197 N   0  0  0  0  0  0  0  0  0  0  0  0
    2.9853   -0.6706    0.9723 C   0  0  0  0  0  0  0  0  0  0  0  0
    3.9057   -0.5291    1.0053 *   0  0  0  0  0  0  0  0  0  2  0  0
    2.2207   -0.6107    2.0147 N   0  0  0  0  0  0  0  0  0  0  0  0
  1  2  1  0
  2  3  1  0
  3  4  1  0
  4  5  1  0
  5  6  1  0
  5  7  2  0
  7  2  1  0
V    1 [*:1]
V    6 [*:2]
M  END
