
     RDKit          3D

  7  7  0  0  0  0  0  0  0  0999 V2000
    1.6630   -2.1444    3.2684 *   0  0  0  0  0  0  0  0  0  1  0  0
    1.5360   -1.6304    2.5233 C   0  0  0  0  0  0  0  0  0  0  0  0
    0.4493   -0.8337    2.3615 C   0  0  0  0  0  0  0  0  0  0  0  0
    0.5682   -0.2307    1.1884 N   0  0  0  0  0  0  0  0  0  0  0  0
    1.7318   -0.6453    0.6051 C   0  0  0  0  0  0  0  0  0  0  0  0
    2.2936   -1.5050    1.4614 N   0  0  0  0  0  0  0  0  0  0  0  0
    3.0608   -1.9148    1.3123 *   0  0  0  0  0  0  0  0  0  2  0  0
  1  2  1  0
  2  3  2  0
  3  4  1  0
  4  5  2  0
  5  6  1  0
  6  7  1  0
  6  2  1  0
V    1 [*:1]
V    7 [*:2]
M  END
