
     RDKit          3D

  9  9  0  0  0  0  0  0  0  0999 V2000
   -0.6123   -0.8251    1.7715 *   0  0  0  0  0  0  0  0  0  2  0  0
    0.1459   -0.7363    1.6522 C   0  0  0  0  0  0  0  0  0  0  0  0
    0.5198   -0.9643    0.3055 N   0  0  0  0  0  0  0  0  0  0  0  0
    1.1931    0.2310   -0.3266 C   0  0  0  0  0  0  0  0  0  0  0  0
    2.3334    0.5713    0.5546 C   0  0  0  0  0  0  0  0  0  0  0  0
    3.5493    0.6523    0.1879 O   0  0  0  0  0  0  0  0  0  0  0  0
    1.9062    0.8312    1.9450 N   0  0  0  0  0  0  0  0  0  0  0  0
    0.4763    0.7158    2.1280 C   0  0  0  0  0  0  0  0  0  0  0  0
    0.1028    1.1806    1.5747 *   0  0  0  0  0  0  0  0  0  1  0  0
  1  2  1  0
  2  3  1  0
  3  4  1  0
  4  5  1  0
  5  6  2  0
  5  7  1  0
  7  8  1  0
  8  9  1  0
  8  2  1  0
V    1 [*:2]
V    9 [*:1]
M  END
