
     RDKit          3D

  8  8  0  0  0  0  0  0  0  0999 V2000
    0.4665   -0.9704    3.5835 *   0  0  0  0  0  0  0  0  0  2  0  0
    0.9369   -1.1392    2.8386 C   0  0  0  0  0  0  0  0  0  0  0  0
    0.6171   -0.7442    1.5677 C   0  0  0  0  0  0  0  0  0  0  0  0
    1.4315   -1.0911    0.6250 N   0  0  0  0  0  0  0  0  0  0  0  0
    1.2869   -0.8727   -0.2020 *   0  0  0  0  0  0  0  0  0  1  0  0
    2.5151   -1.7946    0.9053 C   0  0  0  0  0  0  0  0  0  0  0  0
    3.4445   -2.2300    0.0806 N   0  0  0  0  0  0  0  0  0  0  0  0
    2.3970   -1.9895    2.5972 S   0  0  0  0  0  0  0  0  0  0  0  0
  1  2  1  0
  2  3  2  0
  3  4  1  0
  4  5  1  0
  4  6  1  0
  6  7  2  0
  6  8  1  0
  8  2  1  0
V    1 [*:2]
V    5 [*:1]
M  END
