
     RDKit          3D

  7  6  0  0  0  0  0  0  0  0999 V2000
    1.0806   -0.9390    2.0897 *   0  0  0  0  0  0  0  0  0  1  0  0
    1.3564   -0.6425    1.3452 C   0  0  0  0  0  0  0  0  0  0  0  0
    0.4157   -1.1270    0.2498 C   0  0  0  0  0  0  0  0  0  0  0  0
    3.0152   -1.1961    1.0224 S   0  0  0  0  0  6  0  0  0  0  0  0
    3.5361   -0.9365    1.6712 *   0  0  0  0  0  0  0  0  0  2  0  0
    2.9798   -2.7088    1.0696 O   0  0  0  0  0  0  0  0  0  0  0  0
    3.5100   -0.7269   -0.2965 O   0  0  0  0  0  0  0  0  0  0  0  0
  1  2  1  0
  2  3  1  0
  2  4  1  0
  4  5  1  0
  4  6  2  0
  4  7  2  0
V    1 [*:1]
V    5 [*:2]
M  END
