
     RDKit          3D

  9  9  0  0  0  0  0  0  0  0999 V2000
   -0.4177   -1.2763    0.7506 *   0  0  0  0  0  0  0  0  0  1  0  0
    0.4298   -1.1851    0.7656 C   0  0  0  0  0  0  0  0  0  0  0  0
    1.2374   -1.8000    1.6948 C   0  0  0  0  0  0  0  0  0  0  0  0
    2.5833   -1.6164    1.6683 C   0  0  0  0  0  0  0  0  0  0  0  0
    3.3590   -2.1620    2.5020 O   0  0  0  0  0  0  0  0  0  0  0  0
    3.1544   -0.8102    0.7077 N   0  0  0  0  0  0  0  0  0  0  0  0
    2.3554   -0.2558   -0.1411 C   0  0  0  0  0  0  0  0  0  0  0  0
    2.7268    0.3368   -0.8547 *   0  0  0  0  0  0  0  0  0  2  0  0
    1.0613   -0.3878   -0.1736 N   0  0  0  0  0  0  0  0  0  0  0  0
  1  2  1  0
  2  3  2  0
  3  4  1  0
  4  5  2  0
  4  6  1  0
  6  7  2  0
  7  8  1  0
  7  9  1  0
  9  2  1  0
V    1 [*:1]
V    8 [*:2]
M  END
