
     RDKit          3D

  8  8  0  0  0  0  0  0  0  0999 V2000
   -0.2261   -1.0104    2.2640 *   0  0  0  0  0  0  0  0  0  2  0  0
    0.6196   -1.1814    1.7164 C   0  0  0  0  0  0  0  0  0  0  0  0
    0.3795   -1.7405    0.5735 C   0  0  0  0  0  0  0  0  0  0  0  0
    1.9032   -2.0485   -0.4130 S   0  0  0  0  0  0  0  0  0  0  0  0
    3.1496   -1.4404    0.6176 C   0  0  0  0  0  0  0  0  0  0  0  0
    4.1841   -1.5117    0.2424 *   0  0  0  0  0  0  0  0  0  1  0  0
    3.0328   -0.9404    1.7112 N   0  0  0  0  0  0  0  0  0  0  0  0
    1.7801   -0.7665    2.3527 N   0  0  0  0  0  0  0  0  0  0  0  0
  1  2  1  0
  2  3  2  0
  3  4  1  0
  4  5  1  0
  5  6  1  0
  5  7  2  0
  7  8  1  0
  8  2  1  0
V    1 [*:2]
V    6 [*:1]
M  END
