
     RDKit          3D

  6  5  0  0  0  0  0  0  0  0999 V2000
    1.6654   -2.3669    3.2246 *   0  0  0  0  0  0  0  0  0  1  0  0
    1.5561   -1.8463    2.5450 C   0  0  0  0  0  0  0  0  0  0  0  0
    0.3481   -1.7999    1.9782 C   0  0  0  0  0  0  0  0  0  0  0  0
    2.6348   -1.0872    2.0771 C   0  0  0  0  0  0  0  0  0  0  0  0
    2.4147   -0.4813    1.2469 *   0  0  0  0  0  0  0  0  0  2  0  0
    3.7815   -0.9486    2.3930 O   0  0  0  0  0  0  0  0  0  0  0  0
  1  2  1  0
  2  3  2  0
  2  4  1  0
  4  5  1  0
  4  6  2  0
V    1 [*:1]
V    5 [*:2]
M  END
