
     RDKit          3D

  6  5  0  0  0  0  0  0  0  0999 V2000
    0.4358   -2.3644    2.4271 *   0  0  0  0  0  0  0  0  0  2  0  0
    0.4660   -1.5874    2.0669 C   0  0  0  0  0  0  0  0  0  0  0  0
    2.1039   -1.2803    1.4586 S   0  0  0  0  0  6  0  0  0  0  0  0
    2.2920   -1.9291    0.8386 *   0  0  0  0  0  0  0  0  0  1  0  0
    2.1316    0.1050    0.7723 N   0  0  0  0  0  0  0  0  0  0  0  0
    3.0536   -1.3498    2.6110 O   0  0  0  0  0  0  0  0  0  0  0  0
  1  2  1  0
  2  3  1  0
  3  4  1  0
  3  5  2  0
  3  6  2  0
V    1 [*:2]
V    4 [*:1]
M  END
