
     RDKit          3D

  9  9  0  0  0  0  0  0  0  0999 V2000
    0.9922    1.6681   -0.1836 *   0  0  0  0  0  0  0  0  0  2  0  0
    0.6321    0.7906   -0.1277 C   0  0  0  0  0  0  0  0  0  0  0  0
    0.9789   -0.1882    0.5577 C   0  0  0  0  0  0  0  0  0  0  0  0
    1.6261   -0.3181    1.1565 *   0  0  0  0  0  0  0  0  0  1  0  0
    0.0568   -1.3736    0.6892 N   0  0  0  0  0  0  0  0  0  0  0  0
   -1.2535   -1.2520    0.1258 C   0  0  0  0  0  0  0  0  0  0  0  0
   -1.9688   -2.2493   -0.0149 O   0  0  0  0  0  0  0  0  0  0  0  0
   -1.6392    0.1182   -0.2405 C   0  0  0  0  0  0  0  0  0  0  0  0
   -0.5522    0.7360   -1.0489 C   0  0  0  0  0  0  0  0  0  0  0  0
  1  2  1  0
  2  3  2  0
  3  4  1  0
  3  5  1  0
  5  6  1  0
  6  7  2  0
  6  8  1  0
  8  9  1  0
  9  2  1  0
V    1 [*:2]
V    4 [*:1]
M  END
