
     RDKit          3D

  4  3  0  0  0  0  0  0  0  0999 V2000
    1.5180   -2.8736    0.6979 *   0  0  0  0  0  0  0  0  0  1  0  0
    1.3762   -2.6598    1.2920 N   0  0  0  0  0  0  0  0  0  0  0  0
    2.3811   -1.8798    1.9923 C   0  0  0  0  0  0  0  0  0  0  0  0
    0.6786   -2.6061    1.6923 *   0  0  0  0  0  0  0  0  0  2  0  0
  1  2  1  0
  2  3  1  0
  2  4  1  0
V    1 [*:1]
V    4 [*:2]
M  END
