
     RDKit          3D

  8  8  0  0  0  0  0  0  0  0999 V2000
   -0.1675   -1.8380    2.0056 *   0  0  0  0  0  0  0  0  0  2  0  0
    0.5130   -1.5115    1.8507 N   0  0  0  0  0  0  0  0  0  0  0  0
    0.7900   -0.7717    0.7591 C   0  0  0  0  0  0  0  0  0  0  0  0
    2.0651   -0.3494    0.7901 N   0  0  0  0  0  0  0  0  0  0  0  0
    2.5935   -0.8286    1.9117 C   0  0  0  0  0  0  0  0  0  0  0  0
    3.7899   -0.6484    2.3069 O   0  0  0  0  0  0  0  0  0  0  0  0
    1.6404   -1.5322    2.5461 N   0  0  0  0  0  0  0  0  0  0  0  0
    1.7743   -1.9167    3.2762 *   0  0  0  0  0  0  0  0  0  1  0  0
  1  2  1  0
  2  3  1  0
  3  4  2  0
  4  5  1  0
  5  6  2  0
  5  7  1  0
  7  8  1  0
  7  2  1  0
V    1 [*:2]
V    8 [*:1]
M  END
