
     RDKit          3D

  9  9  0  0  0  0  0  0  0  0999 V2000
    0.8486   -1.5624   -0.3501 *   0  0  0  0  0  0  0  0  0  1  0  0
    0.3022   -0.8526    0.0253 C   0  0  0  0  0  0  0  0  0  0  0  0
    0.3347   -1.1063    1.4659 C   0  0  0  0  0  0  0  0  0  0  0  0
    1.7509   -1.1780    1.7729 N   0  0  0  0  0  0  0  0  0  0  0  0
    2.5950   -0.3444    1.2382 C   0  0  0  0  0  0  0  0  0  0  0  0
    3.4158   -0.4575    1.5006 *   0  0  0  0  0  0  0  0  0  2  0  0
    2.2898    0.5695    0.2029 N   0  0  0  0  0  0  0  0  0  0  0  0
    0.9749    0.4089   -0.4038 C   0  0  0  0  0  0  0  0  0  0  0  0
    0.5280    1.2671   -1.1764 O   0  0  0  0  0  0  0  0  0  0  0  0
  1  2  1  0
  2  3  1  0
  3  4  1  0
  4  5  2  0
  5  6  1  0
  5  7  1  0
  7  8  1  0
  8  9  2  0
  8  2  1  0
V    1 [*:1]
V    6 [*:2]
M  END
