
     RDKit          3D

  5  4  0  0  0  0  0  0  0  0999 V2000
    1.9823   -2.1549    1.0773 *   0  0  0  0  0  0  0  0  0  1  0  0
    1.9630   -1.8344    1.8568 C   0  0  0  0  0  0  0  0  0  0  0  0
    0.9036   -0.7559    1.9299 C   0  0  0  0  0  0  0  0  0  0  0  0
    1.1368    0.2780    1.0540 O   0  0  0  0  0  0  0  0  0  0  0  0
    0.9665   -0.3627    2.7572 *   0  0  0  0  0  0  0  0  0  2  0  0
  1  2  1  0
  2  3  1  0
  3  4  1  0
  3  5  1  0
V    1 [*:1]
V    5 [*:2]
M  END
