
     RDKit          3D

  5  5  0  0  0  0  0  0  0  0999 V2000
    1.3655   -1.4596    3.1762 *   0  0  0  0  0  0  0  0  0  1  0  0
    1.0386   -1.5117    2.4088 C   0  0  0  0  0  0  0  0  0  0  0  0
    0.3525   -1.9477    2.3350 *   0  0  0  0  0  0  0  0  0  2  0  0
    1.9974   -1.5399    1.2593 C   0  0  0  0  0  0  0  0  0  0  0  0
    1.2544   -0.2805    1.5558 C   0  0  0  0  0  0  0  0  0  0  0  0
  1  2  1  0
  2  3  1  0
  2  4  1  0
  4  5  1  0
  5  2  1  0
V    1 [*:1]
V    3 [*:2]
M  END
