
     RDKit          3D

  8  8  0  0  0  0  0  0  0  0999 V2000
   -0.0572   -1.8171    1.7766 *   0  0  0  0  0  0  0  0  0  2  0  0
    0.8642   -1.4577    2.0223 C   0  0  0  0  0  0  0  0  0  0  0  0
    1.3769   -2.1139    2.8102 O   0  0  0  0  0  0  0  0  0  0  0  0
    1.1391   -0.2568    1.2635 C   0  0  0  0  0  0  0  0  0  0  0  0
    1.4068    0.3705    1.7639 *   0  0  0  0  0  0  0  0  0  1  0  0
    2.0952   -0.4707    0.1375 C   0  0  0  0  0  0  0  0  0  0  0  0
    1.0122    0.0232   -0.7420 C   0  0  0  0  0  0  0  0  0  0  0  0
    0.1503    0.2066    0.3540 N   0  0  0  0  0  0  0  0  0  0  0  0
  1  2  1  0
  2  3  2  0
  2  4  1  0
  4  5  1  0
  4  6  1  0
  6  7  1  0
  7  8  1  0
  8  4  1  0
V    1 [*:2]
V    5 [*:1]
M  END
