
     RDKit          3D

 10 11  0  0  0  0  0  0  0  0999 V2000
    1.0655   -0.7060   -2.3339 *   0  0  0  0  0  0  0  0  0  1  0  0
    1.0009   -1.5051   -1.7222 C   0  0  0  0  0  0  0  0  0  0  0  0
    0.7729   -1.9704   -2.0361 *   0  0  0  0  0  0  0  0  0  2  0  0
    0.1949   -0.7790   -0.6120 C   0  0  0  0  0  0  0  0  0  0  0  0
    1.0440    0.2137   -0.1848 N   0  0  0  0  0  0  0  0  0  0  0  0
    1.2704    1.4705    0.5813 C   0  0  0  0  0  0  0  0  0  0  0  0
    1.8825    2.2110   -0.5853 C   0  0  0  0  0  0  0  0  0  0  0  0
    2.9648    1.1838   -0.8411 N   0  0  0  0  0  0  0  0  0  0  0  0
    2.3440    0.0233   -0.7362 C   0  0  0  0  0  0  0  0  0  0  0  0
    2.3765   -1.4016   -1.1151 C   0  0  0  0  0  0  0  0  0  0  0  0
  1  2  1  0
  2  3  1  0
  2  4  1  0
  4  5  1  0
  5  6  1  0
  6  7  1  0
  7  8  1  0
  8  9  2  0
  9 10  1  0
  9  5  1  0
 10  2  1  0
V    1 [*:1]
V    3 [*:2]
M  END
