
     RDKit          3D

  8  8  0  0  0  0  0  0  0  0999 V2000
    0.1165   -1.6792    1.7864 *   0  0  0  0  0  0  0  0  0  1  0  0
    0.2439   -0.9762    0.9891 C   0  0  0  0  0  0  0  0  0  0  0  0
   -0.4130   -0.9186    0.7526 *   0  0  0  0  0  0  0  0  0  2  0  0
    1.3819   -1.5704    0.2766 C   0  0  0  0  0  0  0  0  0  0  0  0
    2.5339   -0.4947    0.9408 S   0  0  0  0  0  6  0  0  0  0  0  0
    3.5219   -1.1586    1.8760 O   0  0  0  0  0  0  0  0  0  0  0  0
    3.1895    0.4873    0.0016 O   0  0  0  0  0  0  0  0  0  0  0  0
    1.0604    0.0400    1.6613 C   0  0  0  0  0  0  0  0  0  0  0  0
  1  2  1  0
  2  3  1  0
  2  4  1  0
  4  5  1  0
  5  6  2  0
  5  7  2  0
  5  8  1  0
  8  2  1  0
V    1 [*:1]
V    3 [*:2]
M  END
