
     RDKit          3D

  8  8  0  0  0  0  0  0  0  0999 V2000
    0.7907   -2.9112    1.3960 *   0  0  0  0  0  0  0  0  0  1  0  0
    0.4553   -2.3129    0.9616 C   0  0  0  0  0  0  0  0  0  0  0  0
    1.5380   -1.3566    0.5737 C   0  0  0  0  0  0  0  0  0  0  0  0
    2.3063   -1.3727   -0.5245 N   0  0  0  0  0  0  0  0  0  0  0  0
    3.1534   -0.3345   -0.4843 N   0  0  0  0  0  0  0  0  0  0  0  0
    2.9044    0.3210    0.6420 C   0  0  0  0  0  0  0  0  0  0  0  0
    1.9135   -0.3043    1.2931 N   0  0  0  0  0  0  0  0  0  0  0  0
    1.5943   -0.0535    2.0387 *   0  0  0  0  0  0  0  0  0  2  0  0
  1  2  1  0
  2  3  1  0
  3  4  2  0
  4  5  1  0
  5  6  2  0
  6  7  1  0
  7  8  1  0
  7  3  1  0
V    1 [*:1]
V    8 [*:2]
M  END
