
     RDKit          3D

 10 11  0  0  0  0  0  0  0  0999 V2000
    1.5918   -0.2260    2.2938 *   0  0  0  0  0  0  0  0  0  1  0  0
    0.7484   -0.3391    2.0905 C   0  0  0  0  0  0  0  0  0  0  0  0
    0.7047   -1.5733    1.1928 C   0  0  0  0  0  0  0  0  0  0  0  0
    1.2730   -2.1321    1.3963 *   0  0  0  0  0  0  0  0  0  2  0  0
    0.9753   -1.0835   -0.1610 N   0  0  0  0  0  0  0  0  0  0  0  0
    1.9665   -0.0281   -0.0112 C   0  0  0  0  0  0  0  0  0  0  0  0
    1.2864    1.2420    0.4656 C   0  0  0  0  0  0  0  0  0  0  0  0
    0.2302    0.8329    1.3894 N   0  0  0  0  0  0  0  0  0  0  0  0
   -0.8675    0.3579    0.5509 C   0  0  0  0  0  0  0  0  0  0  0  0
   -0.2551   -0.4230   -0.5912 C   0  0  0  0  0  0  0  0  0  0  0  0
  1  2  1  0
  2  3  1  0
  3  4  1  0
  3  5  1  0
  5  6  1  0
  6  7  1  0
  7  8  1  0
  8  9  1  0
  9 10  1  0
  8  2  1  0
 10  5  1  0
V    1 [*:1]
V    4 [*:2]
M  END
