
     RDKit          3D

  9  9  0  0  0  0  0  0  0  0999 V2000
   -0.1070   -1.2138    0.2883 *   0  0  0  0  0  0  0  0  0  2  0  0
    0.4318   -1.2397    0.8876 C   0  0  0  0  0  0  0  0  0  0  0  0
    1.4936   -2.1786    0.4924 N   0  0  0  0  0  0  0  0  0  0  0  0
    2.7562   -1.4725    0.4645 C   0  0  0  0  0  0  0  0  0  0  0  0
    4.1916   -2.1784    0.0669 S   0  0  0  0  0  0  0  0  0  0  0  0
    2.5181   -0.1842    0.8145 N   0  0  0  0  0  0  0  0  0  0  0  0
    3.2263    0.5413    0.8788 *   0  0  0  0  0  0  0  0  0  1  0  0
    1.2025    0.0471    1.0781 C   0  0  0  0  0  0  0  0  0  0  0  0
    0.6020    1.1123    1.4312 O   0  0  0  0  0  0  0  0  0  0  0  0
  1  2  1  0
  2  3  1  0
  3  4  1  0
  4  5  2  0
  4  6  1  0
  6  7  1  0
  6  8  1  0
  8  9  2  0
  8  2  1  0
V    1 [*:2]
V    7 [*:1]
M  END
