
     RDKit          3D

  7  6  0  0  0  0  0  0  0  0999 V2000
   -0.4259   -0.9022    2.7753 *   0  0  0  0  0  0  0  0  0  1  0  0
    0.4355   -0.7362    2.6095 N   0  0  0  0  0  0  0  0  0  0  0  0
    0.9808   -1.3595    1.4923 C   0  0  0  0  0  0  0  0  0  0  0  0
    0.3185   -2.1314    0.7243 O   0  0  0  0  0  0  0  0  0  0  0  0
    2.4114   -1.1402    1.1388 C   0  0  0  0  0  0  0  0  0  0  0  0
    3.2123   -1.5637    2.1824 F   0  0  0  0  0  0  0  0  0  0  0  0
    2.5728   -0.2816    1.0074 *   0  0  0  0  0  0  0  0  0  2  0  0
  1  2  1  0
  2  3  1  0
  3  4  2  0
  3  5  1  0
  5  6  1  0
  5  7  1  0
V    1 [*:1]
V    7 [*:2]
M  END
