
     RDKit          3D

  6  5  0  0  0  0  0  0  0  0999 V2000
    0.3207   -2.1485    1.2621 *   0  0  0  0  0  0  0  0  0  2  0  0
    0.5623   -1.5310    1.9387 C   0  0  0  0  0  0  0  0  0  0  0  0
    2.0287   -1.6505    2.0676 C   0  0  0  0  0  0  0  0  0  0  0  0
    2.6681   -2.4417    1.3637 O   0  0  0  0  0  0  0  0  0  0  0  0
    2.6552   -0.8505    2.9978 O   0  0  0  0  0  0  0  0  0  0  0  0
    3.6645   -1.0819    2.9331 *   0  0  0  0  0  0  0  0  0  1  0  0
  1  2  1  0
  2  3  1  0
  3  4  2  0
  3  5  1  0
  5  6  1  0
V    1 [*:2]
V    6 [*:1]
M  END
