
     RDKit          3D

 10 11  0  0  0  0  0  0  0  0999 V2000
   -1.2805    0.4555    0.1527 *   0  0  0  0  0  0  0  0  0  1  0  0
   -0.6410   -0.0655    0.2622 C   0  0  0  0  0  0  0  0  0  0  0  0
   -0.2513   -0.7296   -1.0499 C   0  0  0  0  0  0  0  0  0  0  0  0
    0.5291   -1.9780   -0.7001 C   0  0  0  0  0  0  0  0  0  0  0  0
    1.2037   -1.7525    0.6308 C   0  0  0  0  0  0  0  0  0  0  0  0
    1.8384   -2.3314    0.7753 *   0  0  0  0  0  0  0  0  0  2  0  0
    0.1528   -1.8990    1.7224 C   0  0  0  0  0  0  0  0  0  0  0  0
   -1.0543   -1.1162    1.2864 C   0  0  0  0  0  0  0  0  0  0  0  0
    1.7492   -0.3531    0.7295 C   0  0  0  0  0  0  0  0  0  0  0  0
    0.5905    0.6178    0.8187 C   0  0  0  0  0  0  0  0  0  0  0  0
  1  2  1  0
  2  3  1  0
  3  4  1  0
  4  5  1  0
  5  6  1  0
  5  7  1  0
  7  8  1  0
  5  9  1  0
  9 10  1  0
  8  2  1  0
 10  2  1  0
V    1 [*:1]
V    6 [*:2]
M  END
