
     RDKit          3D

  7  7  0  0  0  0  0  0  0  0999 V2000
    0.4250   -0.5373    2.2111 *   0  0  0  0  0  0  0  0  0  1  0  0
    1.0799   -0.7016    1.7443 C   0  0  0  0  0  0  0  0  0  0  0  0
    0.6355   -0.9745    0.3483 C   0  0  0  0  0  0  0  0  0  0  0  0
    0.9018    0.2273   -0.4110 N   0  0  0  0  0  0  0  0  0  0  0  0
    1.5977    1.1827    0.3785 C   0  0  0  0  0  0  0  0  0  0  0  0
    2.0522    0.4146    1.6228 C   0  0  0  0  0  0  0  0  0  0  0  0
    2.1216    0.8525    2.2876 *   0  0  0  0  0  0  0  0  0  2  0  0
  1  2  1  0
  2  3  1  0
  3  4  1  0
  4  5  1  0
  5  6  1  0
  6  7  1  0
  6  2  1  0
V    1 [*:1]
V    7 [*:2]
M  END
