
     RDKit          3D

  8  8  0  0  0  0  0  0  0  0999 V2000
    0.8209   -0.8870    2.5738 *   0  0  0  0  0  0  0  0  0  1  0  0
    0.7539   -1.5540    1.6806 C   0  0  0  0  0  0  0  0  0  0  0  0
    0.1445   -1.9322    1.8300 *   0  0  0  0  0  0  0  0  0  2  0  0
    0.7588   -0.4944    0.7152 N   0  0  0  0  0  0  0  0  0  0  0  0
    2.0279   -0.2404    0.4123 O   0  0  0  0  0  0  0  0  0  0  0  0
    2.9029   -1.2282    0.8628 C   0  0  0  0  0  0  0  0  0  0  0  0
    4.0833   -1.2853    0.5707 O   0  0  0  0  0  0  0  0  0  0  0  0
    2.1137   -2.0522    1.6837 N   0  0  0  0  0  0  0  0  0  0  0  0
  1  2  1  0
  2  3  1  0
  2  4  1  0
  4  5  1  0
  5  6  1  0
  6  7  2  0
  6  8  1  0
  8  2  1  0
V    1 [*:1]
V    3 [*:2]
M  END
