
     RDKit          3D

  8  8  0  0  0  0  0  0  0  0999 V2000
    0.9198   -2.0291    3.1204 *   0  0  0  0  0  0  0  0  0  1  0  0
    0.5261   -1.5216    2.4379 N   0  0  0  0  0  0  0  0  0  0  0  0
    1.3357   -1.2556    1.3600 C   0  0  0  0  0  0  0  0  0  0  0  0
    2.6331   -1.6555    1.1980 N   0  0  0  0  0  0  0  0  0  0  0  0
    3.1078   -1.2126    0.0223 C   0  0  0  0  0  0  0  0  0  0  0  0
    2.0849   -0.5077   -0.5880 C   0  0  0  0  0  0  0  0  0  0  0  0
    1.0243   -0.5433    0.2312 N   0  0  0  0  0  0  0  0  0  0  0  0
    0.2652   -0.1975    0.1143 *   0  0  0  0  0  0  0  0  0  2  0  0
  1  2  1  0
  2  3  1  0
  3  4  2  0
  4  5  1  0
  5  6  2  0
  6  7  1  0
  7  8  1  0
  7  3  1  0
V    1 [*:1]
V    8 [*:2]
M  END
