
     RDKit          3D

  8  9  0  0  0  0  0  0  0  0999 V2000
    0.2147   -1.4710    1.3714 *   0  0  0  0  0  0  0  0  0  1  0  0
    0.8927   -1.1714    1.3036 C   0  0  0  0  0  0  0  0  0  0  0  0
    1.4372   -1.9837    1.6127 *   0  0  0  0  0  0  0  0  0  2  0  0
    1.4729   -0.8681   -0.0502 C   0  0  0  0  0  0  0  0  0  0  0  0
    1.7244    0.6272   -0.0903 C   0  0  0  0  0  0  0  0  0  0  0  0
    0.6338    1.5340    0.3461 C   0  0  0  0  0  0  0  0  0  0  0  0
    1.6822    1.1053    1.2972 C   0  0  0  0  0  0  0  0  0  0  0  0
    1.3863   -0.0607    2.1904 C   0  0  0  0  0  0  0  0  0  0  0  0
  1  2  1  0
  2  3  1  0
  2  4  1  0
  4  5  1  0
  5  6  1  0
  6  7  1  0
  7  8  1  0
  7  5  1  0
  8  2  1  0
V    1 [*:1]
V    3 [*:2]
M  END
