
     RDKit          3D

  8  8  0  0  0  0  0  0  0  0999 V2000
   -0.1490   -1.5993    1.3839 *   0  0  0  0  0  0  0  0  0  1  0  0
   -0.0216   -0.7751    1.2438 C   0  0  0  0  0  0  0  0  0  0  0  0
    0.5431   -0.4697   -0.0059 C   0  0  0  0  0  0  0  0  0  0  0  0
    0.7259    1.0790    0.3918 C   0  0  0  0  0  0  0  0  0  0  0  0
    1.3259    1.5263    1.8223 C   0  0  0  0  0  0  0  0  0  0  0  0
    2.3580    0.5559    1.7177 C   0  0  0  0  0  0  0  0  0  0  0  0
    1.3513   -0.6088    1.9338 N   0  0  0  0  0  0  0  0  0  0  0  0
    1.7238   -1.2137    1.8208 *   0  0  0  0  0  0  0  0  0  2  0  0
  1  2  1  0
  2  3  1  0
  3  4  1  0
  4  5  1  0
  5  6  1  0
  6  7  1  0
  7  8  1  0
  7  2  1  0
V    1 [*:1]
V    8 [*:2]
M  END
