
     RDKit          3D

  9  9  0  0  0  0  0  0  0  0999 V2000
   -0.6651   -1.6830    1.6095 *   0  0  0  0  0  0  0  0  0  2  0  0
    0.3132   -1.3670    1.2972 C   0  0  0  0  0  0  0  0  0  0  0  0
    0.8427   -2.0150    0.2673 C   0  0  0  0  0  0  0  0  0  0  0  0
    2.1349   -1.5513   -0.0966 C   0  0  0  0  0  0  0  0  0  0  0  0
    2.6795   -0.5217    0.6267 C   0  0  0  0  0  0  0  0  0  0  0  0
    4.1773    0.0810    0.2736 S   0  0  0  0  0  0  0  0  0  0  0  0
    2.0362    0.0424    1.6435 N   0  0  0  0  0  0  0  0  0  0  0  0
    2.3669    0.6530    2.0674 *   0  0  0  0  0  0  0  0  0  1  0  0
    0.7910   -0.3916    2.0076 N   0  0  0  0  0  0  0  0  0  0  0  0
  1  2  1  0
  2  3  1  0
  3  4  2  0
  4  5  1  0
  5  6  2  0
  5  7  1  0
  7  8  1  0
  7  9  1  0
  9  2  2  0
V    1 [*:2]
V    8 [*:1]
M  END
