
     RDKit          3D

  8  7  0  0  0  0  0  0  0  0999 V2000
   -0.0073   -2.2596    3.0247 *   0  0  0  0  0  0  0  0  0  2  0  0
    0.3617   -1.6825    2.7328 O   0  0  0  0  0  0  0  0  0  0  0  0
    1.1843   -1.7589    1.6214 C   0  0  0  0  0  0  0  0  0  0  0  0
    1.3438   -2.8546    1.0405 O   0  0  0  0  0  0  0  0  0  0  0  0
    1.8585   -0.5530    1.1394 C   0  0  0  0  0  0  0  0  0  0  0  0
    1.6465   -0.2930   -0.3237 C   0  0  0  0  0  0  0  0  0  0  0  0
    1.5808    0.5718    1.8862 O   0  0  0  0  0  0  0  0  0  0  0  0
    2.7377   -0.7161    1.2681 *   0  0  0  0  0  0  0  0  0  1  0  0
  1  2  1  0
  2  3  1  0
  3  4  2  0
  3  5  1  0
  5  6  1  0
  5  7  1  0
  5  8  1  0
V    1 [*:2]
V    8 [*:1]
M  END
