
     RDKit          3D

  8  8  0  0  0  0  0  0  0  0999 V2000
   -0.0319   -1.6943    1.5351 *   0  0  0  0  0  0  0  0  0  2  0  0
    0.3263   -1.0127    1.3679 C   0  0  0  0  0  0  0  0  0  0  0  0
    0.5566   -0.9083   -0.1242 C   0  0  0  0  0  0  0  0  0  0  0  0
    1.2737    0.3937   -0.3727 C   0  0  0  0  0  0  0  0  0  0  0  0
    2.5402    0.3590    0.3498 N   0  0  0  0  0  0  0  0  0  0  0  0
    2.6675   -0.2877    1.4456 C   0  0  0  0  0  0  0  0  0  0  0  0
    3.4335   -0.3114    1.8866 *   0  0  0  0  0  0  0  0  0  1  0  0
    1.6142   -0.9834    2.0017 O   0  0  0  0  0  0  0  0  0  0  0  0
  1  2  1  0
  2  3  1  0
  3  4  1  0
  4  5  1  0
  5  6  2  0
  6  7  1  0
  6  8  1  0
  8  2  1  0
V    1 [*:2]
V    7 [*:1]
M  END
