
     RDKit          3D

 10 11  0  0  0  0  0  0  0  0999 V2000
   -2.8528    1.0501    1.5592 *   0  0  0  0  0  0  0  0  0  1  0  0
   -2.3691    0.7189    0.9168 C   0  0  0  0  0  0  0  0  0  0  0  0
   -2.2535    1.2793   -0.3404 N   0  0  0  0  0  0  0  0  0  0  0  0
   -1.4159    0.5806   -1.1031 N   0  0  0  0  0  0  0  0  0  0  0  0
   -0.8576    0.5158   -2.4351 C   0  0  0  0  0  0  0  0  0  0  0  0
   -0.0390   -0.7277   -2.4885 C   0  0  0  0  0  0  0  0  0  0  0  0
    0.0191   -1.2447   -1.0135 C   0  0  0  0  0  0  0  0  0  0  0  0
   -0.9568   -0.4253   -0.3389 C   0  0  0  0  0  0  0  0  0  0  0  0
   -1.5182   -0.3612    0.9328 C   0  0  0  0  0  0  0  0  0  0  0  0
   -1.3062   -0.8887    1.6695 *   0  0  0  0  0  0  0  0  0  2  0  0
  1  2  1  0
  2  3  2  0
  3  4  1  0
  4  5  1  0
  5  6  1  0
  6  7  1  0
  7  8  1  0
  8  9  2  0
  9 10  1  0
  8  4  1  0
  9  2  1  0
V    1 [*:1]
V   10 [*:2]
M  END
