
     RDKit          3D

  9  9  0  0  0  0  0  0  0  0999 V2000
   -0.5559   -1.4047    0.3362 *   0  0  0  0  0  0  0  0  0  2  0  0
    0.0611   -1.2067    0.4178 N   0  0  0  0  0  0  0  0  0  0  0  0
    0.5257   -0.0799   -0.3023 C   0  0  0  0  0  0  0  0  0  0  0  0
    0.5469    1.3055    0.2004 C   0  0  0  0  0  0  0  0  0  0  0  0
    1.4458    1.5453    1.3804 C   0  0  0  0  0  0  0  0  0  0  0  0
    2.2752    0.4210    1.6607 C   0  0  0  0  0  0  0  0  0  0  0  0
    3.1321    0.5180    1.7037 *   0  0  0  0  0  0  0  0  0  1  0  0
    1.9232   -0.9057    1.8622 C   0  0  0  0  0  0  0  0  0  0  0  0
    0.4909   -1.2160    1.7531 C   0  0  0  0  0  0  0  0  0  0  0  0
  1  2  1  0
  2  3  1  0
  3  4  1  0
  4  5  1  0
  5  6  1  0
  6  7  1  0
  6  8  2  0
  8  9  1  0
  9  2  1  0
V    1 [*:2]
V    7 [*:1]
M  END
