
     RDKit          3D

  8  8  0  0  0  0  0  0  0  0999 V2000
    0.5962   -2.7796    3.7852 *   0  0  0  0  0  0  0  0  0  1  0  0
    0.0413   -2.3643    3.2081 N   0  0  0  0  0  0  0  0  0  0  0  0
    0.7222   -1.6437    2.3417 C   0  0  0  0  0  0  0  0  0  0  0  0
    1.9964   -1.4910    2.2509 O   0  0  0  0  0  0  0  0  0  0  0  0
    2.5036   -0.7647    1.3629 C   0  0  0  0  0  0  0  0  0  0  0  0
    3.4391   -0.6554    1.2998 *   0  0  0  0  0  0  0  0  0  2  0  0
    1.6650   -0.1279    0.4790 C   0  0  0  0  0  0  0  0  0  0  0  0
    0.1512   -0.6753    1.0552 S   0  0  0  0  0  0  0  0  0  0  0  0
  1  2  1  0
  2  3  2  3
  3  4  1  0
  4  5  1  0
  5  6  1  0
  5  7  2  0
  7  8  1  0
  8  3  1  0
V    1 [*:1]
V    6 [*:2]
M  END
