
     RDKit          3D

  9  9  0  0  0  0  0  0  0  0999 V2000
   -0.5310   -2.0313    1.8774 *   0  0  0  0  0  0  0  0  0  1  0  0
    0.1555   -1.6481    1.4110 C   0  0  0  0  0  0  0  0  0  0  0  0
    1.4497   -1.7350    1.8682 C   0  0  0  0  0  0  0  0  0  0  0  0
    2.5176   -1.1759    1.2040 C   0  0  0  0  0  0  0  0  0  0  0  0
    3.9965   -1.3890    1.9144 S   0  0  0  0  0  0  0  0  0  0  0  0
    2.4758   -0.4784    0.0423 C   0  0  0  0  0  0  0  0  0  0  0  0
    1.3530   -0.1906   -0.7050 C   0  0  0  0  0  0  0  0  0  0  0  0
    1.4028    0.2647   -1.4446 *   0  0  0  0  0  0  0  0  0  2  0  0
   -0.1147   -0.8081   -0.0413 S   0  0  0  0  0  0  0  0  0  0  0  0
  1  2  1  0
  2  3  2  0
  3  4  1  0
  4  5  2  0
  4  6  1  0
  6  7  2  0
  7  8  1  0
  7  9  1  0
  9  2  1  0
V    1 [*:1]
V    8 [*:2]
M  END
