
     RDKit          3D

  8  8  0  0  0  0  0  0  0  0999 V2000
    0.4277   -2.7761    3.0551 *   0  0  0  0  0  0  0  0  0  1  0  0
    0.9200   -2.2141    2.6747 C   0  0  0  0  0  0  0  0  0  0  0  0
    1.8518   -1.4235    3.2474 O   0  0  0  0  0  0  0  0  0  0  0  0
    2.4198   -0.6726    2.3226 C   0  0  0  0  0  0  0  0  0  0  0  0
    3.3148    0.1709    2.4746 O   0  0  0  0  0  0  0  0  0  0  0  0
    1.8386   -0.9973    1.1677 O   0  0  0  0  0  0  0  0  0  0  0  0
    0.9823   -1.8839    1.3992 C   0  0  0  0  0  0  0  0  0  0  0  0
    0.3916   -2.3014    0.6393 *   0  0  0  0  0  0  0  0  0  2  0  0
  1  2  1  0
  2  3  1  0
  3  4  1  0
  4  5  2  0
  4  6  1  0
  6  7  1  0
  7  8  1  0
  7  2  2  0
V    1 [*:1]
V    8 [*:2]
M  END
