
     RDKit          3D

 10 11  0  0  0  0  0  0  0  0999 V2000
    0.8098    1.0542   -0.1077 *   0  0  0  0  0  0  0  0  0  2  0  0
    0.3975    0.3319   -0.1028 N   0  0  0  0  0  0  0  0  0  0  0  0
   -0.6289   -0.0003   -1.0421 N   0  0  0  0  0  0  0  0  0  0  0  0
   -1.1930   -1.1328   -0.8235 C   0  0  0  0  0  0  0  0  0  0  0  0
   -1.7631   -1.6709   -1.0782 *   0  0  0  0  0  0  0  0  0  1  0  0
   -0.6842   -1.4891    0.6099 C   0  0  0  0  0  0  0  0  0  0  0  0
   -1.7982   -1.3134    1.6384 C   0  0  0  0  0  0  0  0  0  0  0  0
   -1.1694   -2.5992    1.3549 C   0  0  0  0  0  0  0  0  0  0  0  0
    0.5293   -0.7566    0.7991 C   0  0  0  0  0  0  0  0  0  0  0  0
    1.5658   -0.8831    1.5014 O   0  0  0  0  0  0  0  0  0  0  0  0
  1  2  1  0
  2  3  1  0
  3  4  2  0
  4  5  1  0
  4  6  1  0
  6  7  1  0
  7  8  1  0
  6  9  1  0
  9 10  2  0
  8  6  1  0
  9  2  1  0
V    1 [*:2]
V    5 [*:1]
M  END
