
     RDKit          3D

  6  5  0  0  0  0  0  0  0  0999 V2000
    0.8180   -2.0180    3.4262 *   0  0  0  0  0  0  0  0  0  1  0  0
    0.9634   -2.6388    2.8624 O   0  0  0  0  0  0  0  0  0  0  0  0
    2.0799   -1.9268    1.7927 P   0  0  0  0  0  5  0  0  0  0  0  0
    2.0092   -2.8119    0.3527 O   0  0  0  0  0  0  0  0  0  0  0  0
    1.8640   -1.0027    1.6112 *   0  0  0  0  0  0  0  0  0  2  0  0
    3.4612   -1.9614    2.4074 O   0  0  0  0  0  0  0  0  0  0  0  0
  1  2  1  0
  2  3  1  0
  3  4  1  0
  3  5  1  0
  3  6  2  0
V    1 [*:1]
V    5 [*:2]
M  END
