
     RDKit          3D

  9  9  0  0  0  0  0  0  0  0999 V2000
    1.0930   -1.7811    2.0738 *   0  0  0  0  0  0  0  0  0  1  0  0
    1.2095   -1.0815    1.5365 C   0  0  0  0  0  0  0  0  0  0  0  0
    0.2255   -1.1367    1.3026 *   0  0  0  0  0  0  0  0  0  2  0  0
    1.8546   -1.5733    0.4978 O   0  0  0  0  0  0  0  0  0  0  0  0
    2.0278   -0.3197   -0.2668 C   0  0  0  0  0  0  0  0  0  0  0  0
    0.9231    0.6180   -0.2293 C   0  0  0  0  0  0  0  0  0  0  0  0
    1.0963    1.0922    1.2971 N   0  0  0  0  0  0  0  0  0  0  0  0
    1.4338    0.0063    2.3355 C   0  0  0  0  0  0  0  0  0  0  0  0
    1.7658    0.3624    3.4371 O   0  0  0  0  0  0  0  0  0  0  0  0
  1  2  1  0
  2  3  1  0
  2  4  1  0
  4  5  1  0
  5  6  1  0
  6  7  1  0
  7  8  1  0
  8  9  2  0
  8  2  1  0
V    1 [*:1]
V    3 [*:2]
M  END
