
     RDKit          3D

  8  7  0  0  0  0  0  0  0  0999 V2000
   -0.5912   -2.2439    1.9757 *   0  0  0  0  0  0  0  0  0  1  0  0
    0.1865   -1.8724    2.2003 C   0  0  0  0  0  0  0  0  0  0  0  0
    0.5761   -1.9129    3.3746 O   0  0  0  0  0  0  0  0  0  0  0  0
    0.9865   -1.2310    1.2152 N   0  0  0  0  0  0  0  0  0  0  0  0
    2.4889   -0.5158    1.6601 S   0  0  0  0  0  6  0  0  0  0  0  0
    2.6436   -0.6152    2.5168 *   0  0  0  0  0  0  0  0  0  2  0  0
    2.5486    0.9315    1.3130 O   0  0  0  0  0  0  0  0  0  0  0  0
    3.5708   -1.2997    0.9412 O   0  0  0  0  0  0  0  0  0  0  0  0
  1  2  1  0
  2  3  2  0
  2  4  1  0
  4  5  1  0
  5  6  1  0
  5  7  2  0
  5  8  2  0
V    1 [*:1]
V    6 [*:2]
M  END
