
     RDKit          3D

  9  9  0  0  0  0  0  0  0  0999 V2000
    0.2577   -1.1900    1.9317 *   0  0  0  0  0  0  0  0  0  2  0  0
    0.2641   -0.9522    1.1121 C   0  0  0  0  0  0  0  0  0  0  0  0
    0.1279    0.4835    1.0277 C   0  0  0  0  0  0  0  0  0  0  0  0
    1.2283    1.2736    0.4059 C   0  0  0  0  0  0  0  0  0  0  0  0
    2.5707    0.9769    1.1458 C   0  0  0  0  0  0  0  0  0  0  0  0
    2.6991   -0.4563    0.8058 N   0  0  0  0  0  0  0  0  0  0  0  0
    3.4818   -0.7560    0.6965 *   0  0  0  0  0  0  0  0  0  1  0  0
    1.6578   -1.3615    0.6528 C   0  0  0  0  0  0  0  0  0  0  0  0
    1.8048   -2.5339    0.1297 O   0  0  0  0  0  0  0  0  0  0  0  0
  1  2  1  0
  2  3  1  0
  3  4  1  0
  4  5  1  0
  5  6  1  0
  6  7  1  0
  6  8  1  0
  8  9  2  0
  8  2  1  0
V    1 [*:2]
V    7 [*:1]
M  END
