
     RDKit          3D

  8  8  0  0  0  0  0  0  0  0999 V2000
    0.3115   -2.5920    1.0008 *   0  0  0  0  0  0  0  0  0  1  0  0
    0.8969   -2.3252    0.5303 C   0  0  0  0  0  0  0  0  0  0  0  0
    1.0935   -0.8690    0.5926 N   0  0  0  0  0  0  0  0  0  0  0  0
    0.4671    0.0407   -0.2077 C   0  0  0  0  0  0  0  0  0  0  0  0
    0.8860    1.3195    0.1229 C   0  0  0  0  0  0  0  0  0  0  0  0
    1.7998    1.1500    1.1648 C   0  0  0  0  0  0  0  0  0  0  0  0
    1.8630   -0.1755    1.3793 C   0  0  0  0  0  0  0  0  0  0  0  0
    2.4470   -0.5921    2.0786 *   0  0  0  0  0  0  0  0  0  2  0  0
  1  2  1  0
  2  3  1  0
  3  4  1  0
  4  5  2  0
  5  6  1  0
  6  7  2  0
  7  8  1  0
  7  3  1  0
V    1 [*:1]
V    8 [*:2]
M  END
