
     RDKit          3D

  7  7  0  0  0  0  0  0  0  0999 V2000
    0.2876   -2.9260    2.8785 *   0  0  0  0  0  0  0  0  0  1  0  0
    0.9488   -2.6137    2.3986 C   0  0  0  0  0  0  0  0  0  0  0  0
    1.0030   -2.3328    1.0968 N   0  0  0  0  0  0  0  0  0  0  0  0
    2.0842   -1.8795    0.5961 N   0  0  0  0  0  0  0  0  0  0  0  0
    3.1091   -1.7031    1.3731 C   0  0  0  0  0  0  0  0  0  0  0  0
    3.9510   -1.3532    0.9984 *   0  0  0  0  0  0  0  0  0  2  0  0
    2.5720   -2.1790    2.8617 S   0  0  0  0  0  0  0  0  0  0  0  0
  1  2  1  0
  2  3  2  0
  3  4  1  0
  4  5  2  0
  5  6  1  0
  5  7  1  0
  7  2  1  0
V    1 [*:1]
V    6 [*:2]
M  END
