
     RDKit          3D

  6  6  0  0  0  0  0  0  0  0999 V2000
    0.0888   -2.0801    1.8963 *   0  0  0  0  0  0  0  0  0  1  0  0
    0.8530   -1.7730    2.1198 C   0  0  0  0  0  0  0  0  0  0  0  0
    1.8415   -1.8315    0.9778 C   0  0  0  0  0  0  0  0  0  0  0  0
    2.0496   -2.5329    0.6241 *   0  0  0  0  0  0  0  0  0  2  0  0
    2.1493   -0.5137    0.2814 C   0  0  0  0  0  0  0  0  0  0  0  0
    3.0032   -0.9722    1.3357 O   0  0  0  0  0  0  0  0  0  0  0  0
  1  2  1  0
  2  3  1  0
  3  4  1  0
  3  5  1  0
  5  6  1  0
  6  3  1  0
V    1 [*:1]
V    4 [*:2]
M  END
