
     RDKit          3D

  8  8  0  0  0  0  0  0  0  0999 V2000
    0.3744   -0.7020    1.6801 *   0  0  0  0  0  0  0  0  0  2  0  0
    0.7697   -1.1932    1.1140 C   0  0  0  0  0  0  0  0  0  0  0  0
    0.8150   -0.4346   -0.2422 C   0  0  0  0  0  0  0  0  0  0  0  0
    0.5591    1.0314    0.2227 C   0  0  0  0  0  0  0  0  0  0  0  0
    1.5620    1.3755    1.2835 C   0  0  0  0  0  0  0  0  0  0  0  0
    2.5222    0.3655    1.6063 C   0  0  0  0  0  0  0  0  0  0  0  0
    3.3779    0.5901    1.8293 *   0  0  0  0  0  0  0  0  0  1  0  0
    2.3010   -0.9323    1.6076 C   0  0  0  0  0  0  0  0  0  0  0  0
  1  2  1  0
  2  3  1  0
  3  4  1  0
  4  5  1  0
  5  6  1  0
  6  7  1  0
  6  8  2  0
  8  2  1  0
V    1 [*:2]
V    7 [*:1]
M  END
