
     RDKit          3D

 10 11  0  0  0  0  0  0  0  0999 V2000
   -0.0714   -3.3256   -0.0313 *   0  0  0  0  0  0  0  0  0  2  0  0
    0.2982   -2.4643    0.2022 C   0  0  0  0  0  0  0  0  0  0  0  0
    1.2427   -2.2162    1.1208 C   0  0  0  0  0  0  0  0  0  0  0  0
    1.4970   -0.8656    1.1564 N   0  0  0  0  0  0  0  0  0  0  0  0
    2.1928    0.0042    1.7199 C   0  0  0  0  0  0  0  0  0  0  0  0
    2.9132   -0.3343    2.5076 *   0  0  0  0  0  0  0  0  0  1  0  0
    2.1931    1.2790    1.5100 C   0  0  0  0  0  0  0  0  0  0  0  0
    0.9603    1.3178    0.2512 S   0  0  0  0  0  0  0  0  0  0  0  0
    0.6525   -0.3793    0.2184 C   0  0  0  0  0  0  0  0  0  0  0  0
   -0.0778   -1.3728   -0.3597 N   0  0  0  0  0  0  0  0  0  0  0  0
  1  2  1  0
  2  3  2  0
  3  4  1  0
  4  5  1  0
  5  6  1  0
  5  7  2  0
  7  8  1  0
  8  9  1  0
  9 10  2  0
  9  4  1  0
 10  2  1  0
V    1 [*:2]
V    6 [*:1]
M  END
