
     RDKit          3D

  9  9  0  0  0  0  0  0  0  0999 V2000
    0.6173   -1.9930    2.1057 *   0  0  0  0  0  0  0  0  0  2  0  0
    1.0824   -1.8826    1.4015 C   0  0  0  0  0  0  0  0  0  0  0  0
    0.3449   -0.9707    0.5354 C   0  0  0  0  0  0  0  0  0  0  0  0
   -0.7444   -1.2124    0.0453 O   0  0  0  0  0  0  0  0  0  0  0  0
    1.0999    0.2632    0.3454 C   0  0  0  0  0  0  0  0  0  0  0  0
    2.3071    0.0837    1.1108 N   0  0  0  0  0  0  0  0  0  0  0  0
    2.8854    0.6135    1.1716 *   0  0  0  0  0  0  0  0  0  1  0  0
    2.3204   -1.1743    1.7432 C   0  0  0  0  0  0  0  0  0  0  0  0
    3.2350   -1.6355    2.4846 O   0  0  0  0  0  0  0  0  0  0  0  0
  1  2  1  0
  2  3  1  0
  3  4  2  0
  3  5  1  0
  5  6  1  0
  6  7  1  0
  6  8  1  0
  8  9  2  0
  8  2  1  0
V    1 [*:2]
V    7 [*:1]
M  END
