
     RDKit          3D

  7  6  0  0  0  0  0  0  0  0999 V2000
    0.9028   -0.8490    1.8289 *   0  0  0  0  0  0  0  0  0  2  0  0
    1.2679   -0.6561    1.1024 C   0  0  0  0  0  0  0  0  0  0  0  0
    0.6464   -1.3826   -0.0513 C   0  0  0  0  0  0  0  0  0  0  0  0
    2.7507   -0.9518    1.2104 C   0  0  0  0  0  0  0  0  0  0  0  0
    3.5220    0.1042    2.6289 Br  0  0  0  0  0  0  0  0  0  0  0  0
    3.0245   -2.8404    1.5160 Br  0  0  0  0  0  0  0  0  0  0  0  0
    3.1187   -0.7181    0.4254 *   0  0  0  0  0  0  0  0  0  1  0  0
  1  2  1  0
  2  3  1  0
  2  4  1  0
  4  5  1  0
  4  6  1  0
  4  7  1  0
V    1 [*:2]
V    7 [*:1]
M  END
