
     RDKit          3D

  6  5  0  0  0  0  0  0  0  0999 V2000
    0.9104   -2.5321    2.3836 *   0  0  0  0  0  0  0  0  0  1  0  0
    0.5744   -1.7268    2.2071 C   0  0  0  0  0  0  0  0  0  0  0  0
    2.0046   -0.6614    1.8432 P   0  0  0  0  0  5  0  0  0  0  0  0
    2.2995   -0.8072    0.1716 O   0  0  0  0  0  0  0  0  0  0  0  0
    1.8800    0.2174    2.1360 *   0  0  0  0  0  0  0  0  0  2  0  0
    3.2586   -1.1973    2.5318 O   0  0  0  0  0  0  0  0  0  0  0  0
  1  2  1  0
  2  3  1  0
  3  4  1  0
  3  5  1  0
  3  6  2  0
V    1 [*:1]
V    5 [*:2]
M  END
