
     RDKit          3D

 10 11  0  0  0  0  0  0  0  0999 V2000
    1.0025   -3.3316    2.8145 *   0  0  0  0  0  0  0  0  0  2  0  0
    0.7934   -2.6193    2.3110 C   0  0  0  0  0  0  0  0  0  0  0  0
    1.3551   -1.4395    2.3398 N   0  0  0  0  0  0  0  0  0  0  0  0
    0.9336   -0.4884    1.5323 C   0  0  0  0  0  0  0  0  0  0  0  0
    1.5460    0.9100    1.5214 C   0  0  0  0  0  0  0  0  0  0  0  0
    1.7108    1.2305    2.3046 *   0  0  0  0  0  0  0  0  0  1  0  0
    0.9551    1.8624    0.4875 C   0  0  0  0  0  0  0  0  0  0  0  0
    2.3502    1.3741    0.3992 C   0  0  0  0  0  0  0  0  0  0  0  0
   -0.1021   -0.8255    0.6927 C   0  0  0  0  0  0  0  0  0  0  0  0
   -0.3992   -2.4617    1.1105 S   0  0  0  0  0  0  0  0  0  0  0  0
  1  2  1  0
  2  3  2  0
  3  4  1  0
  4  5  1  0
  5  6  1  0
  5  7  1  0
  7  8  1  0
  4  9  2  0
  9 10  1  0
  8  5  1  0
 10  2  1  0
V    1 [*:2]
V    6 [*:1]
M  END
