
     RDKit          3D

  4  3  0  0  0  0  0  0  0  0999 V2000
    1.9502   -2.9852    2.5654 *   0  0  0  0  0  0  0  0  0  1  0  0
    1.2021   -2.3907    2.3353 N   0  0  0  0  0  0  0  0  0  0  0  0
    0.2767   -3.2321    2.1389 N   0  0  0  0  0  0  0  0  0  0  0  0
   -0.4582   -2.6433    1.9126 *   0  0  0  0  0  0  0  0  0  2  0  0
  1  2  1  0
  2  3  2  3
  3  4  1  0
V    1 [*:1]
V    4 [*:2]
M  END
