
     RDKit          3D

  8  8  0  0  0  0  0  0  0  0999 V2000
    0.0358   -0.3465    2.7204 *   0  0  0  0  0  0  0  0  0  1  0  0
    0.6701   -0.7308    2.1210 C   0  0  0  0  0  0  0  0  0  0  0  0
    0.3032   -0.9911    0.8249 C   0  0  0  0  0  0  0  0  0  0  0  0
    1.7402   -1.6492    0.1905 S   0  0  0  0  0  0  0  0  0  0  0  0
    2.7103   -1.5561    1.5917 C   0  0  0  0  0  0  0  0  0  0  0  0
    4.2857   -2.0072    1.8166 S   0  0  0  0  0  0  0  0  0  0  0  0
    1.8809   -1.0236    2.4777 N   0  0  0  0  0  0  0  0  0  0  0  0
    2.1210   -0.8571    3.3128 *   0  0  0  0  0  0  0  0  0  2  0  0
  1  2  1  0
  2  3  2  0
  3  4  1  0
  4  5  1  0
  5  6  2  0
  5  7  1  0
  7  8  1  0
  7  2  1  0
V    1 [*:1]
V    8 [*:2]
M  END
