
     RDKit          3D

  6  5  0  0  0  0  0  0  0  0999 V2000
    1.2318   -1.6886    0.6439 *   0  0  0  0  0  0  0  0  0  1  0  0
    1.2989   -1.4771    1.4631 C   0  0  0  0  0  0  0  0  0  0  0  0
    0.4261   -0.3561    1.7542 N   0  0  0  0  0  0  0  0  0  0  0  0
    2.6995   -1.0985    1.7031 C   0  0  0  0  0  0  0  0  0  0  0  0
    2.8879   -0.2612    1.9906 *   0  0  0  0  0  0  0  0  0  2  0  0
    3.6598   -1.8063    1.5535 O   0  0  0  0  0  0  0  0  0  0  0  0
  1  2  1  0
  2  3  1  0
  2  4  1  0
  4  5  1  0
  4  6  2  0
V    1 [*:1]
V    5 [*:2]
M  END
