
     RDKit          3D

  7  7  0  0  0  0  0  0  0  0999 V2000
   -0.0455   -1.7346    1.6427 *   0  0  0  0  0  0  0  0  0  2  0  0
    0.7326   -1.5386    1.7038 C   0  0  0  0  0  0  0  0  0  0  0  0
    1.6789   -2.1366    1.1624 C   0  0  0  0  0  0  0  0  0  0  0  0
    1.7059   -2.9107    0.6281 *   0  0  0  0  0  0  0  0  0  1  0  0
    3.0435   -1.4997    1.4639 N   0  0  0  0  0  0  0  0  0  0  0  0
    2.6463   -0.4368    2.1669 N   0  0  0  0  0  0  0  0  0  0  0  0
    1.3825   -0.3466    2.2970 C   0  0  0  0  0  0  0  0  0  0  0  0
  1  2  1  0
  2  3  2  0
  3  4  1  0
  3  5  1  0
  5  6  2  0
  6  7  1  0
  7  2  1  0
V    1 [*:2]
V    4 [*:1]
M  END
