
     RDKit          3D

  7  6  0  0  0  0  0  0  0  0999 V2000
    0.5461   -2.8570    3.2672 *   0  0  0  0  0  0  0  0  0  1  0  0
    1.0097   -2.1893    3.1012 O   0  0  0  0  0  0  0  0  0  0  0  0
    1.1362   -1.9152    1.7482 C   0  0  0  0  0  0  0  0  0  0  0  0
    0.5711   -2.6557    0.9054 O   0  0  0  0  0  0  0  0  0  0  0  0
    1.9355   -0.7544    1.3228 C   0  0  0  0  0  0  0  0  0  0  0  0
    1.9249   -0.6681   -0.1200 N   0  0  0  0  0  0  0  0  0  0  0  0
    1.5608   -0.0642    1.6239 *   0  0  0  0  0  0  0  0  0  2  0  0
  1  2  1  0
  2  3  1  0
  3  4  2  0
  3  5  1  0
  5  6  1  0
  5  7  1  0
V    1 [*:1]
V    7 [*:2]
M  END
