
     RDKit          3D

 10 10  0  0  0  0  0  0  0  0999 V2000
    0.3413   -0.9514    1.6200 *   0  0  0  0  0  0  0  0  0  2  0  0
   -0.2967   -0.4902    1.0462 C   0  0  0  0  0  0  0  0  0  0  0  0
   -0.3377    0.8941    1.7543 C   0  0  0  0  0  0  0  0  0  0  0  0
    1.0074    1.5064    1.8681 C   0  0  0  0  0  0  0  0  0  0  0  0
    1.1849    2.6143    2.3803 O   0  0  0  0  0  0  0  0  0  0  0  0
    2.2612    0.8469    1.3967 N   0  0  0  0  0  0  0  0  0  0  0  0
    2.2881   -0.4900    1.1138 C   0  0  0  0  0  0  0  0  0  0  0  0
    1.7491   -0.7894   -0.1436 C   0  0  0  0  0  0  0  0  0  0  0  0
    0.3360   -0.2978   -0.1806 N   0  0  0  0  0  0  0  0  0  0  0  0
    0.0813   -0.0921   -0.8235 *   0  0  0  0  0  0  0  0  0  1  0  0
  1  2  1  0
  2  3  1  0
  3  4  1  0
  4  5  2  0
  4  6  1  0
  6  7  1  0
  7  8  1  0
  8  9  1  0
  9 10  1  0
  9  2  1  0
V    1 [*:2]
V   10 [*:1]
M  END
