
     RDKit          3D

  8  8  0  0  0  0  0  0  0  0999 V2000
   -0.2177   -1.1247    1.9917 *   0  0  0  0  0  0  0  0  0  1  0  0
    0.5980   -1.2025    1.6611 C   0  0  0  0  0  0  0  0  0  0  0  0
    0.8662   -2.1858    0.7337 C   0  0  0  0  0  0  0  0  0  0  0  0
    2.1141   -2.3014    0.2309 N   0  0  0  0  0  0  0  0  0  0  0  0
    3.0455   -1.4553    0.6527 C   0  0  0  0  0  0  0  0  0  0  0  0
    3.8830   -1.5239    0.3230 *   0  0  0  0  0  0  0  0  0  2  0  0
    2.8140   -0.4852    1.5571 N   0  0  0  0  0  0  0  0  0  0  0  0
    1.5735   -0.3290    2.0922 C   0  0  0  0  0  0  0  0  0  0  0  0
  1  2  1  0
  2  3  2  0
  3  4  1  0
  4  5  2  0
  5  6  1  0
  5  7  1  0
  7  8  2  0
  8  2  1  0
V    1 [*:1]
V    6 [*:2]
M  END
