
     RDKit          3D

 10 11  0  0  0  0  0  0  0  0999 V2000
   -0.0016   -2.0572    1.4636 *   0  0  0  0  0  0  0  0  0  2  0  0
   -0.5038   -1.3416    1.2665 N   0  0  0  0  0  0  0  0  0  0  0  0
    0.1687   -0.2737    1.8929 C   0  0  0  0  0  0  0  0  0  0  0  0
    0.3726    0.8232    0.6728 C   0  0  0  0  0  0  0  0  0  0  0  0
    1.4462    1.6211    1.2485 C   0  0  0  0  0  0  0  0  0  0  0  0
    2.4690    0.4421    1.3374 C   0  0  0  0  0  0  0  0  0  0  0  0
    2.1324   -0.5361    0.5701 C   0  0  0  0  0  0  0  0  0  0  0  0
    2.6612   -1.3071    0.4913 *   0  0  0  0  0  0  0  0  0  1  0  0
    0.9260   -0.2460   -0.2504 C   0  0  0  0  0  0  0  0  0  0  0  0
   -0.2792   -1.1450   -0.1680 C   0  0  0  0  0  0  0  0  0  0  0  0
  1  2  1  0
  2  3  1  0
  3  4  1  0
  4  5  1  0
  5  6  1  0
  6  7  2  0
  7  8  1  0
  7  9  1  0
  9 10  1  0
  9  4  1  0
 10  2  1  0
V    1 [*:2]
V    8 [*:1]
M  END
