
     RDKit          3D

  5  4  0  0  0  0  0  0  0  0999 V2000
    1.4015   -2.9162    2.1062 *   0  0  0  0  0  0  0  0  0  1  0  0
    1.3061   -2.3607    2.5394 O   0  0  0  0  0  0  0  0  0  0  0  0
    1.1675   -1.0927    2.6866 C   0  0  0  0  0  0  0  0  0  0  0  0
    0.0188   -0.7857    2.5137 *   0  0  0  0  0  0  0  0  0  2  0  0
    1.9087    0.2113    3.0033 S   0  0  0  0  0  0  0  0  0  0  0  0
  1  2  1  0
  2  3  1  0
  3  4  1  0
  3  5  2  0
V    1 [*:1]
V    4 [*:2]
M  END
