
     RDKit          3D

  8  8  0  0  0  0  0  0  0  0999 V2000
    0.5737   -0.3814   -1.1842 *   0  0  0  0  0  0  0  0  0  2  0  0
    0.1385   -0.8178   -0.6552 C   0  0  0  0  0  0  0  0  0  0  0  0
   -0.7195   -1.6810   -1.0320 C   0  0  0  0  0  0  0  0  0  0  0  0
   -0.8836   -1.8131   -1.8509 *   0  0  0  0  0  0  0  0  0  1  0  0
   -1.4615   -2.5981   -0.0412 C   0  0  0  0  0  0  0  0  0  0  0  0
   -1.6151   -1.9082    1.1680 N   0  0  0  0  0  0  0  0  0  0  0  0
   -0.4216   -1.3780    1.7229 C   0  0  0  0  0  0  0  0  0  0  0  0
    0.2746   -0.4211    0.8022 C   0  0  0  0  0  0  0  0  0  0  0  0
  1  2  1  0
  2  3  2  0
  3  4  1  0
  3  5  1  0
  5  6  1  0
  6  7  1  0
  7  8  1  0
  8  2  1  0
V    1 [*:2]
V    4 [*:1]
M  END
