
     RDKit          3D

  9  9  0  0  0  0  0  0  0  0999 V2000
   -0.9459   -0.1824    1.0184 *   0  0  0  0  0  0  0  0  0  1  0  0
   -0.1922    0.0923    1.3079 C   0  0  0  0  0  0  0  0  0  0  0  0
    0.6806   -1.0545    1.7552 C   0  0  0  0  0  0  0  0  0  0  0  0
    2.3216   -0.4877    1.4412 S   0  0  0  0  0  6  0  0  0  0  0  0
    2.9554   -0.1556    2.7721 O   0  0  0  0  0  0  0  0  0  0  0  0
    3.1592   -1.4564    0.6654 O   0  0  0  0  0  0  0  0  0  0  0  0
    1.9813    0.9584    0.4885 C   0  0  0  0  0  0  0  0  0  0  0  0
    0.5142    0.8741    0.2896 C   0  0  0  0  0  0  0  0  0  0  0  0
    0.3985    0.4534   -0.4735 *   0  0  0  0  0  0  0  0  0  2  0  0
  1  2  1  0
  2  3  1  0
  3  4  1  0
  4  5  2  0
  4  6  2  0
  4  7  1  0
  7  8  1  0
  8  9  1  0
  8  2  1  0
V    1 [*:1]
V    9 [*:2]
M  END
