
     RDKit          3D

  8  8  0  0  0  0  0  0  0  0999 V2000
   -0.0190   -1.9229    2.7749 *   0  0  0  0  0  0  0  0  0  1  0  0
    0.7155   -1.7634    2.5451 N   0  0  0  0  0  0  0  0  0  0  0  0
    1.7048   -2.5942    1.9655 C   0  0  0  0  0  0  0  0  0  0  0  0
    1.5073   -3.4771    1.8103 *   0  0  0  0  0  0  0  0  0  2  0  0
    2.8022   -2.0766    1.6942 N   0  0  0  0  0  0  0  0  0  0  0  0
    3.0095   -0.7777    1.9531 O   0  0  0  0  0  0  0  0  0  0  0  0
    1.5263   -0.2085    2.6474 S   0  0  0  0  0  4  0  0  0  0  0  0
    0.9002    0.7224    1.5900 O   0  0  0  0  0  0  0  0  0  0  0  0
  1  2  1  0
  2  3  1  0
  3  4  1  0
  3  5  2  0
  5  6  1  0
  6  7  1  0
  7  8  2  0
  7  2  1  0
V    1 [*:1]
V    4 [*:2]
M  END
