
     RDKit          3D

  6  5  0  0  0  0  0  0  0  0999 V2000
    0.0657   -2.8186    4.2139 *   0  0  0  0  0  0  0  0  0  2  0  0
    0.3552   -2.0446    3.8617 S   0  0  0  0  0  0  0  0  0  0  0  0
    1.1386   -2.2662    2.3170 O   0  0  0  0  0  0  0  0  0  0  0  0
    2.2241   -1.5128    1.9433 C   0  0  0  0  0  0  0  0  0  0  0  0
    2.6070   -1.6513    1.1382 *   0  0  0  0  0  0  0  0  0  1  0  0
    2.7001   -0.6356    2.6904 O   0  0  0  0  0  0  0  0  0  0  0  0
  1  2  1  0
  2  3  1  0
  3  4  1  0
  4  5  1  0
  4  6  2  0
V    1 [*:2]
V    5 [*:1]
M  END
