
     RDKit          3D

  7  7  0  0  0  0  0  0  0  0999 V2000
    0.7173   -1.2852    3.4046 *   0  0  0  0  0  0  0  0  0  2  0  0
    1.0126   -1.2068    2.4473 C   0  0  0  0  0  0  0  0  0  0  0  0
    0.0705   -1.3618    1.5205 C   0  0  0  0  0  0  0  0  0  0  0  0
    1.0323   -1.1466    0.0845 S   0  0  0  0  0  0  0  0  0  0  0  0
    2.5338   -0.8822    0.8352 C   0  0  0  0  0  0  0  0  0  0  0  0
    3.3506   -0.7197    0.4625 *   0  0  0  0  0  0  0  0  0  1  0  0
    2.2601   -0.9657    2.1765 C   0  0  0  0  0  0  0  0  0  0  0  0
  1  2  1  0
  2  3  2  0
  3  4  1  0
  4  5  1  0
  5  6  1  0
  5  7  2  0
  7  2  1  0
V    1 [*:2]
V    6 [*:1]
M  END
