
     RDKit          3D

  9 10  0  0  0  0  0  0  0  0999 V2000
    0.5817   -1.2358    2.4044 *   0  0  0  0  0  0  0  0  0  1  0  0
    0.2418   -1.2872    1.6181 C   0  0  0  0  0  0  0  0  0  0  0  0
   -0.2373    0.1393    1.3260 C   0  0  0  0  0  0  0  0  0  0  0  0
    0.9294    0.6287    0.6304 C   0  0  0  0  0  0  0  0  0  0  0  0
    1.5365    1.9436    0.6258 C   0  0  0  0  0  0  0  0  0  0  0  0
    2.1521    0.9409    1.5407 C   0  0  0  0  0  0  0  0  0  0  0  0
    1.2286   -0.4674   -0.3252 C   0  0  0  0  0  0  0  0  0  0  0  0
    1.1541   -1.6576    0.5808 N   0  0  0  0  0  0  0  0  0  0  0  0
    2.0253   -1.4373    1.0238 *   0  0  0  0  0  0  0  0  0  2  0  0
  1  2  1  0
  2  3  1  0
  3  4  1  0
  4  5  1  0
  5  6  1  0
  4  7  1  0
  7  8  1  0
  8  9  1  0
  6  4  1  0
  8  2  1  0
V    1 [*:1]
V    9 [*:2]
M  END
