
     RDKit          3D

  7  7  0  0  0  0  0  0  0  0999 V2000
    0.4218   -3.1129    2.1058 *   0  0  0  0  0  0  0  0  0  2  0  0
    1.0692   -2.5155    2.0315 C   0  0  0  0  0  0  0  0  0  0  0  0
    0.9515   -1.1867    2.3933 C   0  0  0  0  0  0  0  0  0  0  0  0
    2.1105   -0.6139    2.1398 N   0  0  0  0  0  0  0  0  0  0  0  0
    2.3048    0.2577    2.2853 *   0  0  0  0  0  0  0  0  0  1  0  0
    2.9364   -1.4905    1.6479 N   0  0  0  0  0  0  0  0  0  0  0  0
    2.3113   -2.6646    1.5750 N   0  0  0  0  0  0  0  0  0  0  0  0
  1  2  1  0
  2  3  2  0
  3  4  1  0
  4  5  1  0
  4  6  1  0
  6  7  2  0
  7  2  1  0
V    1 [*:2]
V    5 [*:1]
M  END
