
     RDKit          3D

  8  8  0  0  0  0  0  0  0  0999 V2000
   -0.4081   -1.1077    1.9117 *   0  0  0  0  0  0  0  0  0  2  0  0
    0.1233   -0.8237    1.3354 N   0  0  0  0  0  0  0  0  0  0  0  0
    1.4876   -1.3126    1.3204 C   0  0  0  0  0  0  0  0  0  0  0  0
    2.3718   -0.8662    0.3931 C   0  0  0  0  0  0  0  0  0  0  0  0
    3.6066   -1.3608    0.4423 N   0  0  0  0  0  0  0  0  0  0  0  0
    3.5845   -2.4273    1.7343 S   0  0  0  0  0  0  0  0  0  0  0  0
    1.9675   -2.2343    2.2167 C   0  0  0  0  0  0  0  0  0  0  0  0
    1.5061   -2.6118    2.8745 *   0  0  0  0  0  0  0  0  0  1  0  0
  1  2  1  0
  2  3  1  0
  3  4  1  0
  4  5  2  0
  5  6  1  0
  6  7  1  0
  7  8  1  0
  7  3  2  0
V    1 [*:2]
V    8 [*:1]
M  END
