
     RDKit          3D

  8  8  0  0  0  0  0  0  0  0999 V2000
   -1.6263    1.9393   -0.6877 *   0  0  0  0  0  0  0  0  0  2  0  0
   -1.2743    1.6737   -0.0213 N   0  0  0  0  0  0  0  0  0  0  0  0
    0.0507    1.9558    0.4085 C   0  0  0  0  0  0  0  0  0  0  0  0
    0.2423    1.3280    1.5549 C   0  0  0  0  0  0  0  0  0  0  0  0
    1.0062    1.3626    2.0103 *   0  0  0  0  0  0  0  0  0  1  0  0
   -0.9434    0.5684    1.9926 C   0  0  0  0  0  0  0  0  0  0  0  0
   -1.9211    0.8287    0.9157 C   0  0  0  0  0  0  0  0  0  0  0  0
   -3.0922    0.3549    0.8997 O   0  0  0  0  0  0  0  0  0  0  0  0
  1  2  1  0
  2  3  1  0
  3  4  2  0
  4  5  1  0
  4  6  1  0
  6  7  1  0
  7  8  2  0
  7  2  1  0
V    1 [*:2]
V    5 [*:1]
M  END
