
     RDKit          3D

  8  8  0  0  0  0  0  0  0  0999 V2000
   -0.0916   -1.6887    1.1181 *   0  0  0  0  0  0  0  0  0  2  0  0
    0.2524   -0.9843    0.8826 C   0  0  0  0  0  0  0  0  0  0  0  0
    1.4325   -1.3104    0.0124 C   0  0  0  0  0  0  0  0  0  0  0  0
    2.5834   -0.7624    0.7660 C   0  0  0  0  0  0  0  0  0  0  0  0
    3.8041   -0.8021    0.4164 O   0  0  0  0  0  0  0  0  0  0  0  0
    2.0904   -0.1688    1.9758 C   0  0  0  0  0  0  0  0  0  0  0  0
    0.7805   -0.2852    2.0565 C   0  0  0  0  0  0  0  0  0  0  0  0
    0.3036    0.0254    2.7391 *   0  0  0  0  0  0  0  0  0  1  0  0
  1  2  1  0
  2  3  1  0
  3  4  1  0
  4  5  2  0
  4  6  1  0
  6  7  2  0
  7  8  1  0
  7  2  1  0
V    1 [*:2]
V    8 [*:1]
M  END
