
     RDKit          3D

  8  8  0  0  0  0  0  0  0  0999 V2000
    0.0879   -1.9286    2.4213 *   0  0  0  0  0  0  0  0  0  2  0  0
    0.0810   -1.6256    1.6637 N   0  0  0  0  0  0  0  0  0  0  0  0
    1.3189   -1.2160    1.0857 C   0  0  0  0  0  0  0  0  0  0  0  0
    1.4909   -0.6869   -0.1715 C   0  0  0  0  0  0  0  0  0  0  0  0
    2.8445   -0.4248   -0.3401 C   0  0  0  0  0  0  0  0  0  0  0  0
    3.4158   -0.8084    0.8201 N   0  0  0  0  0  0  0  0  0  0  0  0
    2.5267   -1.2718    1.6570 N   0  0  0  0  0  0  0  0  0  0  0  0
    2.7210   -1.5436    2.4039 *   0  0  0  0  0  0  0  0  0  1  0  0
  1  2  1  0
  2  3  1  0
  3  4  2  0
  4  5  1  0
  5  6  2  0
  6  7  1  0
  7  8  1  0
  7  3  1  0
V    1 [*:2]
V    8 [*:1]
M  END
