
     RDKit          3D

  8  8  0  0  0  0  0  0  0  0999 V2000
    2.0392   -2.3821    1.9651 *   0  0  0  0  0  0  0  0  0  1  0  0
    1.2837   -2.0084    1.7504 C   0  0  0  0  0  0  0  0  0  0  0  0
    0.2011   -2.2026    3.1262 Cl  0  0  0  0  0  0  0  0  0  0  0  0
    0.7237   -2.8459    0.3021 Cl  0  0  0  0  0  0  0  0  0  0  0  0
    1.6295   -0.5636    1.4746 C   0  0  0  0  0  0  0  0  0  0  0  0
    1.9783   -0.1444    2.1462 *   0  0  0  0  0  0  0  0  0  2  0  0
    2.1063   -0.1720    0.1436 C   0  0  0  0  0  0  0  0  0  0  0  0
    0.7458    0.2775    0.6281 C   0  0  0  0  0  0  0  0  0  0  0  0
  1  2  1  0
  2  3  1  0
  2  4  1  0
  2  5  1  0
  5  6  1  0
  5  7  1  0
  7  8  1  0
  8  5  1  0
V    1 [*:1]
V    6 [*:2]
M  END
