
     RDKit          3D

  5  4  0  0  0  0  0  0  0  0999 V2000
    0.4977   -2.2845    3.6174 *   0  0  0  0  0  0  0  0  0  1  0  0
    0.7726   -1.8648    3.4186 N   0  0  0  0  0  0  0  0  0  0  0  0
    1.4468   -1.0926    2.6763 C   0  0  0  0  0  0  0  0  0  0  0  0
    1.8604   -1.5389    1.3093 C   0  0  0  0  0  0  0  0  0  0  0  0
    1.6508   -0.3263    2.9795 *   0  0  0  0  0  0  0  0  0  2  0  0
  1  2  1  0
  2  3  2  3
  3  4  1  0
  3  5  1  0
V    1 [*:1]
V    5 [*:2]
M  END
