
     RDKit          3D

 10 11  0  0  0  0  0  0  0  0999 V2000
    1.0325   -3.0457    2.1462 *   0  0  0  0  0  0  0  0  0  1  0  0
    1.0308   -2.2603    1.8915 C   0  0  0  0  0  0  0  0  0  0  0  0
    0.9086   -1.9499    0.5450 N   0  0  0  0  0  0  0  0  0  0  0  0
    0.9842   -0.6139    0.4124 C   0  0  0  0  0  0  0  0  0  0  0  0
    1.1303    0.4155   -0.5472 N   0  0  0  0  0  0  0  0  0  0  0  0
    0.8795    1.6578    0.1601 C   0  0  0  0  0  0  0  0  0  0  0  0
    1.2904    1.3395    1.6015 C   0  0  0  0  0  0  0  0  0  0  0  0
    1.1706   -0.1040    1.6568 N   0  0  0  0  0  0  0  0  0  0  0  0
    1.1675   -1.0838    2.5013 C   0  0  0  0  0  0  0  0  0  0  0  0
    1.3562   -1.0319    3.5150 *   0  0  0  0  0  0  0  0  0  2  0  0
  1  2  1  0
  2  3  1  0
  3  4  2  0
  4  5  1  0
  5  6  1  0
  6  7  1  0
  7  8  1  0
  8  9  1  0
  9 10  1  0
  8  4  1  0
  9  2  2  0
V    1 [*:1]
V   10 [*:2]
M  END
