
     RDKit          3D

 10 11  0  0  0  0  0  0  0  0999 V2000
    0.9078   -2.2444    2.3060 *   0  0  0  0  0  0  0  0  0  1  0  0
    1.0784   -1.5350    1.9750 N   0  0  0  0  0  0  0  0  0  0  0  0
    1.8994   -0.5638    2.5540 N   0  0  0  0  0  0  0  0  0  0  0  0
    2.3638    0.4598    1.8913 C   0  0  0  0  0  0  0  0  0  0  0  0
    2.9051    1.1572    2.1912 *   0  0  0  0  0  0  0  0  0  2  0  0
    2.1260    0.4276    0.4574 C   0  0  0  0  0  0  0  0  0  0  0  0
    1.2677    1.1534   -0.3644 C   0  0  0  0  0  0  0  0  0  0  0  0
    0.5821    0.2649    0.4899 C   0  0  0  0  0  0  0  0  0  0  0  0
    0.5240   -1.2009    0.6453 C   0  0  0  0  0  0  0  0  0  0  0  0
    0.0650   -1.9863   -0.1407 O   0  0  0  0  0  0  0  0  0  0  0  0
  1  2  1  0
  2  3  1  0
  3  4  2  0
  4  5  1  0
  4  6  1  0
  6  7  1  0
  7  8  1  0
  8  9  1  0
  9 10  2  0
  8  6  1  0
  9  2  1  0
V    1 [*:1]
V    5 [*:2]
M  END
