
     RDKit          3D

  9  9  0  0  0  0  0  0  0  0999 V2000
    1.6004   -1.1135    0.2430 *   0  0  0  0  0  0  0  0  0  1  0  0
    1.1975   -0.4476   -0.1253 C   0  0  0  0  0  0  0  0  0  0  0  0
   -0.1005   -0.1346    0.6774 C   0  0  0  0  0  0  0  0  0  0  0  0
    0.1187    0.4941    1.8822 C   0  0  0  0  0  0  0  0  0  0  0  0
    0.8783    0.3111    2.9786 N   0  0  0  0  0  0  0  0  0  0  0  0
    2.3721    0.6061    2.4292 C   0  0  0  0  0  0  0  0  0  0  0  0
    2.8710    0.6735    3.1377 *   0  0  0  0  0  0  0  0  0  2  0  0
    2.5514    0.7189    1.2467 N   0  0  0  0  0  0  0  0  0  0  0  0
    2.1665    0.7535   -0.1791 C   0  0  0  0  0  0  0  0  0  0  0  0
  1  2  1  0
  2  3  1  0
  3  4  1  0
  4  5  1  0
  5  6  1  0
  6  7  1  0
  6  8  2  0
  8  9  1  0
  9  2  1  0
V    1 [*:1]
V    7 [*:2]
M  END
