
     RDKit          3D

  8  8  0  0  0  0  0  0  0  0999 V2000
   -0.7127   -1.4634    2.6836 *   0  0  0  0  0  0  0  0  0  1  0  0
    0.3069   -1.4737    2.4276 C   0  0  0  0  0  0  0  0  0  0  0  0
    0.8359   -2.6531    2.2525 N   0  0  0  0  0  0  0  0  0  0  0  0
    2.1406   -2.6917    1.9240 N   0  0  0  0  0  0  0  0  0  0  0  0
    2.8059   -1.5582    1.7981 C   0  0  0  0  0  0  0  0  0  0  0  0
    3.6762   -1.5571    1.5800 *   0  0  0  0  0  0  0  0  0  2  0  0
    2.2049   -0.3762    1.9914 N   0  0  0  0  0  0  0  0  0  0  0  0
    0.8890   -0.3247    2.3231 N   0  0  0  0  0  0  0  0  0  0  0  0
  1  2  1  0
  2  3  2  0
  3  4  1  0
  4  5  2  0
  5  6  1  0
  5  7  1  0
  7  8  2  0
  8  2  1  0
V    1 [*:1]
V    6 [*:2]
M  END
