
     RDKit          3D

  8  8  0  0  0  0  0  0  0  0999 V2000
   -0.3584   -1.2624    2.5136 *   0  0  0  0  0  0  0  0  0  2  0  0
   -0.1034   -0.9391    1.7570 N   0  0  0  0  0  0  0  0  0  0  0  0
    1.2234   -1.2167    1.3626 C   0  0  0  0  0  0  0  0  0  0  0  0
    1.7679   -0.7747    0.1960 N   0  0  0  0  0  0  0  0  0  0  0  0
    3.0375   -1.2180    0.1396 C   0  0  0  0  0  0  0  0  0  0  0  0
    3.3004   -1.9400    1.2671 N   0  0  0  0  0  0  0  0  0  0  0  0
    2.1824   -1.9040    1.9571 N   0  0  0  0  0  0  0  0  0  0  0  0
    2.0840   -2.3085    2.7547 *   0  0  0  0  0  0  0  0  0  1  0  0
  1  2  1  0
  2  3  1  0
  3  4  2  0
  4  5  1  0
  5  6  2  0
  6  7  1  0
  7  8  1  0
  7  3  1  0
V    1 [*:2]
V    8 [*:1]
M  END
