
     RDKit          3D

  7  7  0  0  0  0  0  0  0  0999 V2000
    1.6569   -1.5038    2.7232 *   0  0  0  0  0  0  0  0  0  2  0  0
    1.7773   -1.3657    1.8929 N   0  0  0  0  0  0  0  0  0  0  0  0
    0.7564   -0.7611    1.0402 C   0  0  0  0  0  0  0  0  0  0  0  0
    1.4328   -0.7344   -0.2941 C   0  0  0  0  0  0  0  0  0  0  0  0
    2.7551   -1.3168   -0.0820 N   0  0  0  0  0  0  0  0  0  0  0  0
    2.8529   -1.6213    1.0958 C   0  0  0  0  0  0  0  0  0  0  0  0
    3.7166   -2.0443    1.4237 *   0  0  0  0  0  0  0  0  0  1  0  0
  1  2  1  0
  2  3  1  0
  3  4  1  0
  4  5  1  0
  5  6  2  0
  6  7  1  0
  6  2  1  0
V    1 [*:2]
V    7 [*:1]
M  END
