
     RDKit          3D

  9  9  0  0  0  0  0  0  0  0999 V2000
    0.5385   -0.5080   -1.0782 *   0  0  0  0  0  0  0  0  0  1  0  0
   -0.2888   -0.2153   -0.6676 C   0  0  0  0  0  0  0  0  0  0  0  0
   -0.0813    1.1972   -0.2148 C   0  0  0  0  0  0  0  0  0  0  0  0
    1.3113    1.0220    0.4847 C   0  0  0  0  0  0  0  0  0  0  0  0
    1.8658    0.3142    1.4965 C   0  0  0  0  0  0  0  0  0  0  0  0
    1.7712   -1.3065    1.3875 N   0  0  0  0  0  0  0  0  0  0  0  0
    2.1402   -1.4714    2.0287 *   0  0  0  0  0  0  0  0  0  2  0  0
    0.3826   -1.2844    1.4605 C   0  0  0  0  0  0  0  0  0  0  0  0
   -0.5067   -1.2412    0.3492 C   0  0  0  0  0  0  0  0  0  0  0  0
  1  2  1  0
  2  3  1  0
  3  4  1  0
  4  5  1  0
  5  6  1  0
  6  7  1  0
  6  8  1  0
  8  9  1  0
  9  2  1  0
V    1 [*:1]
V    7 [*:2]
M  END
