
     RDKit          3D

  8  7  0  0  0  0  0  0  0  0999 V2000
   -0.0850   -1.3896    2.8766 *   0  0  0  0  0  0  0  0  0  2  0  0
    0.2572   -0.7500    2.5455 N   0  0  0  0  0  0  0  0  0  0  0  0
    1.1548   -1.0079    1.4712 C   0  0  0  0  0  0  0  0  0  0  0  0
    1.3785   -2.1932    1.0842 O   0  0  0  0  0  0  0  0  0  0  0  0
    1.8699    0.0729    0.7522 C   0  0  0  0  0  0  0  0  0  0  0  0
    1.6251   -0.1045   -0.7202 C   0  0  0  0  0  0  0  0  0  0  0  0
    1.5672    1.3756    1.2440 N   0  0  0  0  0  0  0  0  0  0  0  0
    2.7306   -0.1346    0.8592 *   0  0  0  0  0  0  0  0  0  1  0  0
  1  2  1  0
  2  3  1  0
  3  4  2  0
  3  5  1  0
  5  6  1  0
  5  7  1  0
  5  8  1  0
V    1 [*:2]
V    8 [*:1]
M  END
