
     RDKit          3D

  6  6  0  0  0  0  0  0  0  0999 V2000
    1.1950   -1.6145    2.4645 *   0  0  0  0  0  0  0  0  0  1  0  0
    0.9427   -1.4692    1.7002 C   0  0  0  0  0  0  0  0  0  0  0  0
    0.2356   -1.9839    1.4627 *   0  0  0  0  0  0  0  0  0  2  0  0
    2.0119   -1.5541    0.6445 C   0  0  0  0  0  0  0  0  0  0  0  0
    1.7627   -0.0941    0.3268 C   0  0  0  0  0  0  0  0  0  0  0  0
    0.6959   -0.0096    1.3803 C   0  0  0  0  0  0  0  0  0  0  0  0
  1  2  1  0
  2  3  1  0
  2  4  1  0
  4  5  1  0
  5  6  1  0
  6  2  1  0
V    1 [*:1]
V    3 [*:2]
M  END
