
     RDKit          3D

 10 11  0  0  0  0  0  0  0  0999 V2000
    0.7923   -0.6805    2.6501 *   0  0  0  0  0  0  0  0  0  2  0  0
    0.9484   -0.8902    1.9339 N   0  0  0  0  0  0  0  0  0  0  0  0
   -0.0464   -0.2966    1.0399 C   0  0  0  0  0  0  0  0  0  0  0  0
    0.6865    0.7805    0.2638 C   0  0  0  0  0  0  0  0  0  0  0  0
    1.7273    1.1712    1.3305 C   0  0  0  0  0  0  0  0  0  0  0  0
    2.2003   -0.2815    1.5355 C   0  0  0  0  0  0  0  0  0  0  0  0
    2.4477   -0.6656    0.1366 C   0  0  0  0  0  0  0  0  0  0  0  0
    3.2965   -1.5121   -0.2311 O   0  0  0  0  0  0  0  0  0  0  0  0
    1.5536    0.0994   -0.6669 N   0  0  0  0  0  0  0  0  0  0  0  0
    1.5167    0.1580   -1.4609 *   0  0  0  0  0  0  0  0  0  1  0  0
  1  2  1  0
  2  3  1  0
  3  4  1  0
  4  5  1  0
  5  6  1  0
  6  7  1  0
  7  8  2  0
  7  9  1  0
  9 10  1  0
  6  2  1  0
  9  4  1  0
V    1 [*:2]
V   10 [*:1]
M  END
