
     RDKit          3D

  6  5  0  0  0  0  0  0  0  0999 V2000
    0.3672   -1.7110    2.4209 *   0  0  0  0  0  0  0  0  0  1  0  0
    1.2386   -1.9665    2.3299 C   0  0  0  0  0  0  0  0  0  0  0  0
    1.6828   -1.6123    0.6503 S   0  0  0  0  0  6  0  0  0  0  0  0
    1.1780   -2.0516    0.1078 *   0  0  0  0  0  0  0  0  0  2  0  0
    1.7660   -0.0435    0.3877 C   0  0  0  0  0  0  0  0  0  0  0  0
    3.1360   -2.0139    0.4110 O   0  0  0  0  0  0  0  0  0  0  0  0
  1  2  1  0
  2  3  1  0
  3  4  1  0
  3  5  2  0
  3  6  2  0
V    1 [*:1]
V    4 [*:2]
M  END
