
     RDKit          3D

  8  8  0  0  0  0  0  0  0  0999 V2000
    0.3409   -1.2542    2.1821 *   0  0  0  0  0  0  0  0  0  2  0  0
    0.6777   -1.2019    1.4799 C   0  0  0  0  0  0  0  0  0  0  0  0
    1.1844   -2.5238    1.0289 C   0  0  0  0  0  0  0  0  0  0  0  0
    0.6394   -3.2452    0.9316 *   0  0  0  0  0  0  0  0  0  1  0  0
    2.4333   -2.5058    0.8076 N   0  0  0  0  0  0  0  0  0  0  0  0
    2.9546   -1.2517    1.0539 N   0  0  0  0  0  0  0  0  0  0  0  0
    1.9147   -0.3897    1.4765 C   0  0  0  0  0  0  0  0  0  0  0  0
    2.0653    1.1775    1.8751 S   0  0  0  0  0  0  0  0  0  0  0  0
  1  2  1  0
  2  3  1  0
  3  4  1  0
  3  5  2  0
  5  6  1  0
  6  7  1  0
  7  8  2  0
  7  2  1  0
V    1 [*:2]
V    4 [*:1]
M  END
