
     RDKit          3D

  8  8  0  0  0  0  0  0  0  0999 V2000
    0.0512   -1.7839    2.4526 *   0  0  0  0  0  0  0  0  0  2  0  0
    0.7168   -1.5659    1.9425 C   0  0  0  0  0  0  0  0  0  0  0  0
    1.2511   -0.2923    1.7916 C   0  0  0  0  0  0  0  0  0  0  0  0
    2.2424   -0.4273    0.9236 N   0  0  0  0  0  0  0  0  0  0  0  0
    2.7802    0.2265    0.6239 *   0  0  0  0  0  0  0  0  0  1  0  0
    2.3600   -1.6873    0.5278 C   0  0  0  0  0  0  0  0  0  0  0  0
    3.1602   -2.2034   -0.2687 O   0  0  0  0  0  0  0  0  0  0  0  0
    1.3992   -2.4236    1.1650 N   0  0  0  0  0  0  0  0  0  0  0  0
  1  2  1  0
  2  3  2  0
  3  4  1  0
  4  5  1  0
  4  6  1  0
  6  7  2  0
  6  8  1  0
  8  2  1  0
V    1 [*:2]
V    5 [*:1]
M  END
