
     RDKit          3D

  7  6  0  0  0  0  0  0  0  0999 V2000
    1.5083   -1.6696    0.8831 *   0  0  0  0  0  0  0  0  0  2  0  0
    1.0731   -1.1075    0.6129 N   0  0  0  0  0  0  0  0  0  0  0  0
   -0.0703   -0.8989    1.4364 C   0  0  0  0  0  0  0  0  0  0  0  0
    1.8610    0.0724    0.3895 C   0  0  0  0  0  0  0  0  0  0  0  0
    1.0989    1.1850   -0.2841 C   0  0  0  0  0  0  0  0  0  0  0  0
    2.6379    0.5325    1.5747 C   0  0  0  0  0  0  0  0  0  0  0  0
    2.4373   -0.2017   -0.2742 *   0  0  0  0  0  0  0  0  0  1  0  0
  1  2  1  0
  2  3  1  0
  2  4  1  0
  4  5  1  0
  4  6  1  0
  4  7  1  0
V    1 [*:2]
V    7 [*:1]
M  END
