
     RDKit          3D

  6  5  0  0  0  0  0  0  0  0999 V2000
    1.9081   -1.9692    0.7082 *   0  0  0  0  0  0  0  0  0  1  0  0
    1.7519   -1.4226    1.3849 C   0  0  0  0  0  0  0  0  0  0  0  0
    0.3303   -1.0212    1.5401 C   0  0  0  0  0  0  0  0  0  0  0  0
    2.7146   -1.0203    2.1646 C   0  0  0  0  0  0  0  0  0  0  0  0
    4.0013   -1.3464    2.0728 F   0  0  0  0  0  0  0  0  0  0  0  0
    2.4830   -0.4643    2.8338 *   0  0  0  0  0  0  0  0  0  2  0  0
  1  2  1  0
  2  3  1  0
  2  4  2  3
  4  5  1  0
  4  6  1  0
V    1 [*:1]
V    6 [*:2]
M  END
