
     RDKit          3D

  7  6  0  0  0  0  0  0  0  0999 V2000
   -0.0929   -0.9580    2.9726 *   0  0  0  0  0  0  0  0  0  2  0  0
    0.5833   -0.7082    2.5366 N   0  0  0  0  0  0  0  0  0  0  0  0
    1.0501   -1.6123    1.5165 C   0  0  0  0  0  0  0  0  0  0  0  0
    0.4747   -2.7016    1.3019 O   0  0  0  0  0  0  0  0  0  0  0  0
    2.2373   -1.2251    0.7169 C   0  0  0  0  0  0  0  0  0  0  0  0
    2.4935   -2.2450   -0.1928 O   0  0  0  0  0  0  0  0  0  0  0  0
    2.8881   -1.1083    1.1989 *   0  0  0  0  0  0  0  0  0  1  0  0
  1  2  1  0
  2  3  1  0
  3  4  2  0
  3  5  1  0
  5  6  1  0
  5  7  1  0
V    1 [*:2]
V    7 [*:1]
M  END
