
     RDKit          3D

 10 11  0  0  0  0  0  0  0  0999 V2000
    0.4015   -2.4830    1.9559 *   0  0  0  0  0  0  0  0  0  2  0  0
    0.7351   -2.0686    1.6269 N   0  0  0  0  0  0  0  0  0  0  0  0
    0.4362   -1.1985    0.5180 C   0  0  0  0  0  0  0  0  0  0  0  0
    0.8255   -0.7081    1.8507 C   0  0  0  0  0  0  0  0  0  0  0  0
    2.2539   -0.1881    1.9398 C   0  0  0  0  0  0  0  0  0  0  0  0
    2.9817    0.0182    2.7880 O   0  0  0  0  0  0  0  0  0  0  0  0
    2.5692    0.0101    0.4618 N   0  0  0  0  0  0  0  0  0  0  0  0
    3.2126    0.3926    0.2474 *   0  0  0  0  0  0  0  0  0  1  0  0
    1.5894   -0.7440   -0.2959 C   0  0  0  0  0  0  0  0  0  0  0  0
    1.7379   -0.9848   -1.5447 O   0  0  0  0  0  0  0  0  0  0  0  0
  1  2  1  0
  2  3  1  0
  3  4  1  0
  4  5  1  0
  5  6  2  0
  5  7  1  0
  7  8  1  0
  7  9  1  0
  9 10  2  0
  4  2  1  0
  9  3  1  0
V    1 [*:2]
V    8 [*:1]
M  END
