
     RDKit          3D

  8  8  0  0  0  0  0  0  0  0999 V2000
    0.4422   -2.6575    0.5484 *   0  0  0  0  0  0  0  0  0  1  0  0
    0.9902   -2.1218    0.0722 C   0  0  0  0  0  0  0  0  0  0  0  0
    1.4211   -1.0405    0.9080 N   0  0  0  0  0  0  0  0  0  0  0  0
    0.7697    0.1318    1.0170 C   0  0  0  0  0  0  0  0  0  0  0  0
    1.4507    0.9627    1.9086 C   0  0  0  0  0  0  0  0  0  0  0  0
    2.4989    0.2598    2.3119 N   0  0  0  0  0  0  0  0  0  0  0  0
    2.4896   -0.9471    1.7152 C   0  0  0  0  0  0  0  0  0  0  0  0
    3.0946   -1.5854    1.8342 *   0  0  0  0  0  0  0  0  0  2  0  0
  1  2  1  0
  2  3  1  0
  3  4  1  0
  4  5  2  0
  5  6  1  0
  6  7  2  0
  7  8  1  0
  7  3  1  0
V    1 [*:1]
V    8 [*:2]
M  END
