
     RDKit          3D

  8  8  0  0  0  0  0  0  0  0999 V2000
    0.1045   -2.9625    3.6115 *   0  0  0  0  0  0  0  0  0  1  0  0
    0.0101   -2.3681    3.2397 N   0  0  0  0  0  0  0  0  0  0  0  0
    0.8344   -1.6740    2.4748 C   0  0  0  0  0  0  0  0  0  0  0  0
    2.0780   -2.0154    2.2675 N   0  0  0  0  0  0  0  0  0  0  0  0
    2.8068   -1.2838    1.5108 C   0  0  0  0  0  0  0  0  0  0  0  0
    3.7893   -1.6583    1.4185 *   0  0  0  0  0  0  0  0  0  2  0  0
    2.2035    0.0902    0.7878 S   0  0  0  0  0  0  0  0  0  0  0  0
    0.3199   -0.2260    1.6699 S   0  0  0  0  0  0  0  0  0  0  0  0
  1  2  1  0
  2  3  2  3
  3  4  1  0
  4  5  2  0
  5  6  1  0
  5  7  1  0
  7  8  1  0
  8  3  1  0
V    1 [*:1]
V    6 [*:2]
M  END
