
     RDKit          3D

  5  4  0  0  0  0  0  0  0  0999 V2000
    0.9030   -2.1002    1.9310 *   0  0  0  0  0  0  0  0  0  1  0  0
    0.9596   -1.5875    2.3457 C   0  0  0  0  0  0  0  0  0  0  0  0
    0.9027    0.2942    1.9648 Br  0  0  0  0  0  0  0  0  0  0  0  0
    0.8428   -1.8646    4.2637 Br  0  0  0  0  0  0  0  0  0  0  0  0
    2.1944   -1.6860    2.3439 *   0  0  0  0  0  0  0  0  0  2  0  0
  1  2  1  0
  2  3  1  0
  2  4  1  0
  2  5  1  0
V    1 [*:1]
V    5 [*:2]
M  END
