
     RDKit          3D

  8  8  0  0  0  0  0  0  0  0999 V2000
   -0.4072    0.9231    0.0914 *   0  0  0  0  0  0  0  0  0  2  0  0
   -0.2152    0.1358    0.3722 C   0  0  0  0  0  0  0  0  0  0  0  0
    0.8184   -0.5861   -0.4230 C   0  0  0  0  0  0  0  0  0  0  0  0
    1.7503   -0.6160    0.6777 N   0  0  0  0  0  0  0  0  0  0  0  0
    3.0448   -1.1393    0.7965 C   0  0  0  0  0  0  0  0  0  0  0  0
    3.4808   -1.0270    1.6814 *   0  0  0  0  0  0  0  0  0  1  0  0
    3.7044   -1.7156   -0.0490 O   0  0  0  0  0  0  0  0  0  0  0  0
    0.7742    0.0853    1.4859 C   0  0  0  0  0  0  0  0  0  0  0  0
  1  2  1  0
  2  3  1  0
  3  4  1  0
  4  5  1  0
  5  6  1  0
  5  7  2  0
  4  8  1  0
  8  2  1  0
V    1 [*:2]
V    6 [*:1]
M  END
