
     RDKit          3D

 10 11  0  0  0  0  0  0  0  0999 V2000
   -1.5699    0.4775    1.7463 *   0  0  0  0  0  0  0  0  0  1  0  0
   -0.8470    0.3109    1.4764 C   0  0  0  0  0  0  0  0  0  0  0  0
   -0.0783    1.5697    1.0733 C   0  0  0  0  0  0  0  0  0  0  0  0
    1.2702    1.1093    0.5818 C   0  0  0  0  0  0  0  0  0  0  0  0
    1.9323    0.1361    1.5251 C   0  0  0  0  0  0  0  0  0  0  0  0
    1.4508   -1.2090    1.0512 C   0  0  0  0  0  0  0  0  0  0  0  0
    0.5777   -0.9109   -0.1249 C   0  0  0  0  0  0  0  0  0  0  0  0
   -0.8423   -0.5861    0.2422 C   0  0  0  0  0  0  0  0  0  0  0  0
    1.1749    0.3268   -0.6360 N   0  0  0  0  0  0  0  0  0  0  0  0
    1.8738    0.1954   -0.9263 *   0  0  0  0  0  0  0  0  0  2  0  0
  1  2  1  0
  2  3  1  0
  3  4  1  0
  4  5  1  0
  5  6  1  0
  6  7  1  0
  7  8  1  0
  7  9  1  0
  9 10  1  0
  8  2  1  0
  9  4  1  0
V    1 [*:1]
V   10 [*:2]
M  END
