
     RDKit          3D

  9  9  0  0  0  0  0  0  0  0999 V2000
   -0.5595   -1.4172    2.5001 *   0  0  0  0  0  0  0  0  0  1  0  0
    0.3369   -1.2921    2.1713 C   0  0  0  0  0  0  0  0  0  0  0  0
    1.2938   -1.7405    2.8437 N   0  0  0  0  0  0  0  0  0  0  0  0
    2.6939   -1.2870    1.8760 S   0  0  0  0  0  6  0  0  0  0  0  0
    3.5451   -0.3148    2.6024 O   0  0  0  0  0  0  0  0  0  0  0  0
    3.4251   -2.4898    1.4027 O   0  0  0  0  0  0  0  0  0  0  0  0
    1.8027   -0.5096    0.6169 N   0  0  0  0  0  0  0  0  0  0  0  0
    0.5739   -0.6275    0.9735 C   0  0  0  0  0  0  0  0  0  0  0  0
   -0.0500   -0.2824    0.4423 *   0  0  0  0  0  0  0  0  0  2  0  0
  1  2  1  0
  2  3  2  0
  3  4  1  0
  4  5  2  0
  4  6  2  0
  4  7  1  0
  7  8  2  0
  8  9  1  0
  8  2  1  0
V    1 [*:1]
V    9 [*:2]
M  END
