
     RDKit          3D

  5  4  0  0  0  0  0  0  0  0999 V2000
    2.2083   -2.4045    1.3899 *   0  0  0  0  0  0  0  0  0  2  0  0
    2.1038   -2.0192    2.1710 C   0  0  0  0  0  0  0  0  0  0  0  0
    0.9180   -1.0740    2.1134 C   0  0  0  0  0  0  0  0  0  0  0  0
    1.0996   -0.0840    1.1570 F   0  0  0  0  0  0  0  0  0  0  0  0
    0.9451   -0.6542    2.8866 *   0  0  0  0  0  0  0  0  0  1  0  0
  1  2  1  0
  2  3  1  0
  3  4  1  0
  3  5  1  0
V    1 [*:2]
V    5 [*:1]
M  END
