
     RDKit          3D

  9  9  0  0  0  0  0  0  0  0999 V2000
    0.9504   -1.7685    1.7321 *   0  0  0  0  0  0  0  0  0  1  0  0
    0.2740   -1.3333    1.4077 C   0  0  0  0  0  0  0  0  0  0  0  0
    0.9487   -1.0912    0.0202 O   0  0  0  0  0  0  0  0  0  0  0  0
    1.0687    0.1506    0.0840 C   0  0  0  0  0  0  0  0  0  0  0  0
    1.7029    1.4224    0.2873 C   0  0  0  0  0  0  0  0  0  0  0  0
    2.3111    1.0155    1.7532 C   0  0  0  0  0  0  0  0  0  0  0  0
    1.4081    0.4441    2.3939 O   0  0  0  0  0  0  0  0  0  0  0  0
    0.1748    0.0657    2.1414 C   0  0  0  0  0  0  0  0  0  0  0  0
   -0.2152    0.5369    1.5594 *   0  0  0  0  0  0  0  0  0  2  0  0
  1  2  1  0
  2  3  1  0
  3  4  1  0
  4  5  1  0
  5  6  1  0
  6  7  1  0
  7  8  1  0
  8  9  1  0
  8  2  1  0
V    1 [*:1]
V    9 [*:2]
M  END
