
     RDKit          3D

 10 11  0  0  0  0  0  0  0  0999 V2000
   -0.7715   -1.5408    2.2499 *   0  0  0  0  0  0  0  0  0  2  0  0
    0.1888   -1.2693    2.1273 C   0  0  0  0  0  0  0  0  0  0  0  0
    1.2335   -1.7824    2.6043 N   0  0  0  0  0  0  0  0  0  0  0  0
    2.4116   -1.2682    2.0927 N   0  0  0  0  0  0  0  0  0  0  0  0
    3.1561   -1.4589    2.3029 *   0  0  0  0  0  0  0  0  0  1  0  0
    2.0034   -0.3159    1.1947 C   0  0  0  0  0  0  0  0  0  0  0  0
    2.5395    0.5664    0.1958 C   0  0  0  0  0  0  0  0  0  0  0  0
    1.3624    1.4877   -0.0218 C   0  0  0  0  0  0  0  0  0  0  0  0
    0.0917    0.6699    0.2138 C   0  0  0  0  0  0  0  0  0  0  0  0
    0.5912   -0.2971    1.2223 C   0  0  0  0  0  0  0  0  0  0  0  0
  1  2  1  0
  2  3  2  0
  3  4  1  0
  4  5  1  0
  4  6  1  0
  6  7  1  0
  7  8  1  0
  8  9  1  0
  9 10  1  0
 10  2  1  0
 10  6  2  0
V    1 [*:2]
V    5 [*:1]
M  END
