
     RDKit          3D

  7  7  0  0  0  0  0  0  0  0999 V2000
    1.3755   -2.2963    2.2530 *   0  0  0  0  0  0  0  0  0  1  0  0
    1.4764   -1.4994    1.9675 C   0  0  0  0  0  0  0  0  0  0  0  0
    0.7562   -1.2731    0.6718 C   0  0  0  0  0  0  0  0  0  0  0  0
    1.8010   -0.9711   -0.2826 N   0  0  0  0  0  0  0  0  0  0  0  0
    2.9432   -0.9940    0.2616 N   0  0  0  0  0  0  0  0  0  0  0  0
    2.8505   -1.3033    1.6164 N   0  0  0  0  0  0  0  0  0  0  0  0
    3.5428   -1.3569    2.1248 *   0  0  0  0  0  0  0  0  0  2  0  0
  1  2  1  0
  2  3  1  0
  3  4  1  0
  4  5  2  0
  5  6  1  0
  6  7  1  0
  6  2  1  0
V    1 [*:1]
V    7 [*:2]
M  END
