
     RDKit          3D

  9  9  0  0  0  0  0  0  0  0999 V2000
    0.2181   -0.2218    2.9473 *   0  0  0  0  0  0  0  0  0  1  0  0
    0.6236   -0.3743    2.1245 N   0  0  0  0  0  0  0  0  0  0  0  0
    1.6396   -1.3385    2.0346 N   0  0  0  0  0  0  0  0  0  0  0  0
    2.2940   -1.4821    0.9457 C   0  0  0  0  0  0  0  0  0  0  0  0
    2.9354   -2.0679    0.8370 *   0  0  0  0  0  0  0  0  0  2  0  0
    2.0151   -0.6327   -0.2484 C   0  0  0  0  0  0  0  0  0  0  0  0
    0.6201   -0.0292   -0.2565 C   0  0  0  0  0  0  0  0  0  0  0  0
    0.1274    0.3807    1.0552 C   0  0  0  0  0  0  0  0  0  0  0  0
   -0.9323    1.5480    1.1751 S   0  0  0  0  0  0  0  0  0  0  0  0
  1  2  1  0
  2  3  1  0
  3  4  2  0
  4  5  1  0
  4  6  1  0
  6  7  1  0
  7  8  1  0
  8  9  2  0
  8  2  1  0
V    1 [*:1]
V    5 [*:2]
M  END
