
     RDKit          3D

  7  7  0  0  0  0  0  0  0  0999 V2000
    1.7177   -3.7496    2.2402 *   0  0  0  0  0  0  0  0  0  1  0  0
    1.7649   -2.7913    1.9741 C   0  0  0  0  0  0  0  0  0  0  0  0
    0.7094   -2.0897    2.0576 N   0  0  0  0  0  0  0  0  0  0  0  0
    0.7637   -0.8353    1.7112 N   0  0  0  0  0  0  0  0  0  0  0  0
    2.3913   -0.6328    1.2420 S   0  0  0  0  0  0  0  0  0  0  0  0
    2.9061   -2.2567    1.5410 C   0  0  0  0  0  0  0  0  0  0  0  0
    3.7026   -2.6320    1.4371 *   0  0  0  0  0  0  0  0  0  2  0  0
  1  2  1  0
  2  3  1  0
  3  4  2  0
  4  5  1  0
  5  6  1  0
  6  7  1  0
  6  2  2  0
V    1 [*:1]
V    7 [*:2]
M  END
