
     RDKit          3D

  7  7  0  0  0  0  0  0  0  0999 V2000
    0.4343   -0.2845    2.0639 *   0  0  0  0  0  0  0  0  0  2  0  0
    0.7388   -0.9215    2.4034 C   0  0  0  0  0  0  0  0  0  0  0  0
    0.5264   -2.1126    1.6101 N   0  0  0  0  0  0  0  0  0  0  0  0
    1.6307   -2.6582    1.3162 N   0  0  0  0  0  0  0  0  0  0  0  0
    2.6248   -1.8939    1.8748 C   0  0  0  0  0  0  0  0  0  0  0  0
    3.5698   -2.1443    1.7652 *   0  0  0  0  0  0  0  0  0  1  0  0
    2.2156   -0.9005    2.5025 N   0  0  0  0  0  0  0  0  0  0  0  0
  1  2  1  0
  2  3  1  0
  3  4  2  0
  4  5  1  0
  5  6  1  0
  5  7  2  0
  7  2  1  0
V    1 [*:2]
V    6 [*:1]
M  END
