
     RDKit          3D

  8  8  0  0  0  0  0  0  0  0999 V2000
    0.0581   -1.9168    0.4295 *   0  0  0  0  0  0  0  0  0  1  0  0
    0.7912   -1.6491    0.8347 C   0  0  0  0  0  0  0  0  0  0  0  0
    1.4844   -2.2621    1.6716 C   0  0  0  0  0  0  0  0  0  0  0  0
    1.2300   -3.2821    2.0168 *   0  0  0  0  0  0  0  0  0  2  0  0
    2.5940   -1.5764    2.1379 C   0  0  0  0  0  0  0  0  0  0  0  0
    3.4829   -1.9294    2.9843 O   0  0  0  0  0  0  0  0  0  0  0  0
    2.5493   -0.3302    1.4517 O   0  0  0  0  0  0  0  0  0  0  0  0
    1.4195   -0.2968    0.5936 C   0  0  0  0  0  0  0  0  0  0  0  0
  1  2  1  0
  2  3  2  0
  3  4  1  0
  3  5  1  0
  5  6  2  0
  5  7  1  0
  7  8  1  0
  8  2  1  0
V    1 [*:1]
V    4 [*:2]
M  END
