
     RDKit          3D

  8  8  0  0  0  0  0  0  0  0999 V2000
    1.9079   -1.6116   -0.9180 *   0  0  0  0  0  0  0  0  0  1  0  0
    1.3238   -1.8834   -0.3650 C   0  0  0  0  0  0  0  0  0  0  0  0
    1.4402   -0.9912    0.8426 C   0  0  0  0  0  0  0  0  0  0  0  0
    0.7464    0.2080    1.0536 C   0  0  0  0  0  0  0  0  0  0  0  0
    1.1505    0.6972    2.2809 C   0  0  0  0  0  0  0  0  0  0  0  0
    2.0582   -0.1874    2.7828 N   0  0  0  0  0  0  0  0  0  0  0  0
    2.1829   -1.1306    1.9177 N   0  0  0  0  0  0  0  0  0  0  0  0
    2.7625   -1.8593    2.0519 *   0  0  0  0  0  0  0  0  0  2  0  0
  1  2  1  0
  2  3  1  0
  3  4  2  0
  4  5  1  0
  5  6  2  0
  6  7  1  0
  7  8  1  0
  7  3  1  0
V    1 [*:1]
V    8 [*:2]
M  END
