
     RDKit          3D

 10 11  0  0  0  0  0  0  0  0999 V2000
   -0.8892   -2.8857    0.3632 *   0  0  0  0  0  0  0  0  0  2  0  0
   -0.2486   -2.0459    0.4100 C   0  0  0  0  0  0  0  0  0  0  0  0
    0.9877   -2.1115    0.8838 C   0  0  0  0  0  0  0  0  0  0  0  0
    1.4916   -0.7994    0.7725 C   0  0  0  0  0  0  0  0  0  0  0  0
    2.5299    0.0050    0.9750 N   0  0  0  0  0  0  0  0  0  0  0  0
    3.3081   -0.2610    1.3242 *   0  0  0  0  0  0  0  0  0  1  0  0
    2.2472    1.2435    0.5886 C   0  0  0  0  0  0  0  0  0  0  0  0
    0.9325    1.1659    0.1183 C   0  0  0  0  0  0  0  0  0  0  0  0
    0.4691   -0.0769    0.2288 N   0  0  0  0  0  0  0  0  0  0  0  0
   -0.5897   -0.8879    0.0202 N   0  0  0  0  0  0  0  0  0  0  0  0
  1  2  1  0
  2  3  1  0
  3  4  2  0
  4  5  1  0
  5  6  1  0
  5  7  1  0
  7  8  2  0
  8  9  1  0
  9 10  1  0
  9  4  1  0
 10  2  2  0
V    1 [*:2]
V    6 [*:1]
M  END
