
     RDKit          3D

 10 10  0  0  0  0  0  0  0  0999 V2000
    0.4387   -1.3833    0.2502 *   0  0  0  0  0  0  0  0  0  2  0  0
    0.6630   -0.6608   -0.1474 C   0  0  0  0  0  0  0  0  0  0  0  0
   -0.0517    0.4176    0.6917 C   0  0  0  0  0  0  0  0  0  0  0  0
    0.9421    1.2855    1.3406 C   0  0  0  0  0  0  0  0  0  0  0  0
    1.0013    2.4437    1.1577 O   0  0  0  0  0  0  0  0  0  0  0  0
    1.8876    0.5597    2.2629 C   0  0  0  0  0  0  0  0  0  0  0  0
    2.5365   -0.4453    1.3853 C   0  0  0  0  0  0  0  0  0  0  0  0
    3.3318   -1.2521    1.8245 O   0  0  0  0  0  0  0  0  0  0  0  0
    2.1408   -0.3843   -0.0505 C   0  0  0  0  0  0  0  0  0  0  0  0
    2.2569    0.4345   -0.2881 *   0  0  0  0  0  0  0  0  0  1  0  0
  1  2  1  0
  2  3  1  0
  3  4  1  0
  4  5  2  0
  4  6  1  0
  6  7  1  0
  7  8  2  0
  7  9  1  0
  9 10  1  0
  9  2  1  0
V    1 [*:2]
V   10 [*:1]
M  END
