
     RDKit          3D

  8  9  0  0  0  0  0  0  0  0999 V2000
    2.0601   -0.2975   -0.5690 *   0  0  0  0  0  0  0  0  0  1  0  0
    1.8578   -0.8154    0.0373 C   0  0  0  0  0  0  0  0  0  0  0  0
    2.0574   -1.6127   -0.0262 *   0  0  0  0  0  0  0  0  0  2  0  0
    0.3223   -0.7685    0.1173 C   0  0  0  0  0  0  0  0  0  0  0  0
    0.1384    0.6826    0.6089 C   0  0  0  0  0  0  0  0  0  0  0  0
    1.0872    0.6669    1.7975 C   0  0  0  0  0  0  0  0  0  0  0  0
    2.4535    1.1956    1.5807 C   0  0  0  0  0  0  0  0  0  0  0  0
    2.2358   -0.2389    1.3661 C   0  0  0  0  0  0  0  0  0  0  0  0
  1  2  1  0
  2  3  1  0
  2  4  1  0
  4  5  1  0
  5  6  1  0
  6  7  1  0
  7  8  1  0
  8  6  1  0
  8  2  1  0
V    1 [*:1]
V    3 [*:2]
M  END
