
     RDKit          3D

  7  7  0  0  0  0  0  0  0  0999 V2000
   -0.5137   -0.7740    1.8114 *   0  0  0  0  0  0  0  0  0  1  0  0
    0.2086   -0.2336    1.8621 N   0  0  0  0  0  0  0  0  0  0  0  0
    1.2276   -1.1137    1.3003 C   0  0  0  0  0  0  0  0  0  0  0  0
    1.3216   -1.8153    1.7344 *   0  0  0  0  0  0  0  0  0  2  0  0
    2.4900   -0.3657    1.0814 C   0  0  0  0  0  0  0  0  0  0  0  0
    2.4011   -0.5082   -0.2652 O   0  0  0  0  0  0  0  0  0  0  0  0
    1.2416   -1.2028   -0.1794 C   0  0  0  0  0  0  0  0  0  0  0  0
  1  2  1  0
  2  3  1  0
  3  4  1  0
  3  5  1  0
  5  6  1  0
  6  7  1  0
  7  3  1  0
V    1 [*:1]
V    4 [*:2]
M  END
