
     RDKit          3D

  9  9  0  0  0  0  0  0  0  0999 V2000
   -0.0932    1.1052    2.1677 *   0  0  0  0  0  0  0  0  0  2  0  0
   -0.4356    0.6339    1.5722 N   0  0  0  0  0  0  0  0  0  0  0  0
    0.3951   -0.5891    1.0871 C   0  0  0  0  0  0  0  0  0  0  0  0
   -0.2687   -1.5249    0.6378 C   0  0  0  0  0  0  0  0  0  0  0  0
   -1.5484   -1.4797   -0.0082 C   0  0  0  0  0  0  0  0  0  0  0  0
   -2.0150   -2.0090   -0.3763 *   0  0  0  0  0  0  0  0  0  1  0  0
   -2.2029   -0.2569    0.2773 N   0  0  0  0  0  0  0  0  0  0  0  0
   -1.7520    0.6387    1.0537 C   0  0  0  0  0  0  0  0  0  0  0  0
   -2.4570    1.6571    1.5509 O   0  0  0  0  0  0  0  0  0  0  0  0
  1  2  1  0
  2  3  1  0
  3  4  1  0
  4  5  2  0
  5  6  1  0
  5  7  1  0
  7  8  1  0
  8  9  2  0
  8  2  1  0
V    1 [*:2]
V    6 [*:1]
M  END
