
     RDKit          3D

 10 11  0  0  0  0  0  0  0  0999 V2000
    1.1795   -1.4366    2.3513 *   0  0  0  0  0  0  0  0  0  1  0  0
    0.6016   -1.4140    1.7186 C   0  0  0  0  0  0  0  0  0  0  0  0
   -0.6688   -1.2701    2.4137 N   0  0  0  0  0  0  0  0  0  0  0  0
   -1.2265   -1.6047    2.2408 *   0  0  0  0  0  0  0  0  0  2  0  0
   -0.6342    0.1514    2.1873 C   0  0  0  0  0  0  0  0  0  0  0  0
    0.4962   -0.0033    1.2291 C   0  0  0  0  0  0  0  0  0  0  0  0
    1.6164    0.8871    1.1767 C   0  0  0  0  0  0  0  0  0  0  0  0
    1.8233    1.2650   -0.2874 C   0  0  0  0  0  0  0  0  0  0  0  0
    1.0519    0.1903   -1.0564 C   0  0  0  0  0  0  0  0  0  0  0  0
   -0.1596   -0.0239   -0.1958 C   0  0  0  0  0  0  0  0  0  0  0  0
  1  2  1  0
  2  3  1  0
  3  4  1  0
  3  5  1  0
  5  6  1  0
  6  7  1  0
  7  8  1  0
  8  9  1  0
  9 10  1  0
  6  2  1  0
 10  6  1  0
V    1 [*:1]
V    4 [*:2]
M  END
