
     RDKit          3D

  8  8  0  0  0  0  0  0  0  0999 V2000
    0.0424   -1.3093    1.6818 *   0  0  0  0  0  0  0  0  0  2  0  0
    0.5651   -0.8073    1.1980 C   0  0  0  0  0  0  0  0  0  0  0  0
    0.8121   -1.3714   -0.0992 N   0  0  0  0  0  0  0  0  0  0  0  0
    2.1839   -1.4516   -0.2405 N   0  0  0  0  0  0  0  0  0  0  0  0
    2.8402   -0.9602    0.9178 C   0  0  0  0  0  0  0  0  0  0  0  0
    4.4663   -0.9141    1.0770 S   0  0  0  0  0  0  0  0  0  0  0  0
    1.8300   -0.5567    1.8187 N   0  0  0  0  0  0  0  0  0  0  0  0
    1.9470   -0.2575    2.5149 *   0  0  0  0  0  0  0  0  0  1  0  0
  1  2  1  0
  2  3  1  0
  3  4  1  0
  4  5  1  0
  5  6  2  0
  5  7  1  0
  7  8  1  0
  7  2  1  0
V    1 [*:2]
V    8 [*:1]
M  END
