
     RDKit          3D

  9 10  0  0  0  0  0  0  0  0999 V2000
    0.3595   -1.0931    2.4611 *   0  0  0  0  0  0  0  0  0  1  0  0
    0.9974   -1.0216    1.9103 N   0  0  0  0  0  0  0  0  0  0  0  0
    0.3735   -0.8887    0.5947 C   0  0  0  0  0  0  0  0  0  0  0  0
    0.2836    0.5916    0.3015 C   0  0  0  0  0  0  0  0  0  0  0  0
    0.3427    1.1482    1.7366 C   0  0  0  0  0  0  0  0  0  0  0  0
    1.5678    0.2902    2.1057 C   0  0  0  0  0  0  0  0  0  0  0  0
    2.4520    0.5735    0.9160 C   0  0  0  0  0  0  0  0  0  0  0  0
    1.5781    1.0116   -0.1702 N   0  0  0  0  0  0  0  0  0  0  0  0
    1.6344    1.6862   -0.3464 *   0  0  0  0  0  0  0  0  0  2  0  0
  1  2  1  0
  2  3  1  0
  3  4  1  0
  4  5  1  0
  5  6  1  0
  6  7  1  0
  7  8  1  0
  8  9  1  0
  6  2  1  0
  8  4  1  0
V    1 [*:1]
V    9 [*:2]
M  END
