
     RDKit          3D

  8  8  0  0  0  0  0  0  0  0999 V2000
   -0.1373   -0.6165    2.9762 *   0  0  0  0  0  0  0  0  0  1  0  0
    0.4359   -1.2195    2.5277 C   0  0  0  0  0  0  0  0  0  0  0  0
   -0.0908   -2.7405    1.8565 S   0  0  0  0  0  0  0  0  0  0  0  0
    1.8252   -3.2130    1.1632 S   0  0  0  0  0  0  0  0  0  0  0  0
    2.5523   -1.7366    1.7644 C   0  0  0  0  0  0  0  0  0  0  0  0
    3.8055   -1.5386    1.5757 O   0  0  0  0  0  0  0  0  0  0  0  0
    1.6839   -0.9984    2.3522 C   0  0  0  0  0  0  0  0  0  0  0  0
    2.0718   -0.0350    2.7647 *   0  0  0  0  0  0  0  0  0  2  0  0
  1  2  1  0
  2  3  1  0
  3  4  1  0
  4  5  1  0
  5  6  2  0
  5  7  1  0
  7  8  1  0
  7  2  2  0
V    1 [*:1]
V    8 [*:2]
M  END
