
     RDKit          3D

  8  8  0  0  0  0  0  0  0  0999 V2000
    1.8663   -1.1995    2.1937 *   0  0  0  0  0  0  0  0  0  1  0  0
    1.3254   -0.8459    1.6883 C   0  0  0  0  0  0  0  0  0  0  0  0
    1.9637   -1.0176    0.3020 C   0  0  0  0  0  0  0  0  0  0  0  0
    1.6636    0.1442   -0.4600 C   0  0  0  0  0  0  0  0  0  0  0  0
    1.7563    0.4568   -1.5665 O   0  0  0  0  0  0  0  0  0  0  0  0
    1.0197    1.1204    0.5427 C   0  0  0  0  0  0  0  0  0  0  0  0
    1.1957    0.6254    1.8725 C   0  0  0  0  0  0  0  0  0  0  0  0
    0.5888    0.7885    2.3241 *   0  0  0  0  0  0  0  0  0  2  0  0
  1  2  1  0
  2  3  1  0
  3  4  1  0
  4  5  2  0
  4  6  1  0
  6  7  1  0
  7  8  1  0
  7  2  1  0
V    1 [*:1]
V    8 [*:2]
M  END
