
     RDKit          3D

  8  8  0  0  0  0  0  0  0  0999 V2000
    1.6463   -1.4775    0.3702 *   0  0  0  0  0  0  0  0  0  1  0  0
    1.4233   -0.9838    1.0095 C   0  0  0  0  0  0  0  0  0  0  0  0
   -0.0075   -0.4964    0.7319 N   0  0  0  0  0  0  0  0  0  0  0  0
    0.4326    0.3967   -0.2077 C   0  0  0  0  0  0  0  0  0  0  0  0
    1.0919    1.2956    0.9690 C   0  0  0  0  0  0  0  0  0  0  0  0
    1.9530    0.7358    2.1094 N   0  0  0  0  0  0  0  0  0  0  0  0
    2.6619    0.0016    1.2428 C   0  0  0  0  0  0  0  0  0  0  0  0
    2.8372    0.2542    0.4892 *   0  0  0  0  0  0  0  0  0  2  0  0
  1  2  1  0
  2  3  1  0
  3  4  1  0
  4  5  1  0
  5  6  1  0
  6  7  1  0
  7  8  1  0
  7  2  1  0
V    1 [*:1]
V    8 [*:2]
M  END
