7r00-pdb-bundle1
  PyMOL2.6          3D                             0

 17 17  0  0  0  0  0  0  0  0999 V2000
  -26.4949   47.1328    9.2004 H   0  0  0  0  0  0  0  0  0  0  0  0
  -23.2520   43.9660    9.6960 C   0  0  0  0  0  0  0  0  0  0  0  0
  -24.5060   44.5950   10.1310 N   0  0  0  0  0  0  0  0  0  0  0  0
  -24.6690   43.1500   11.8940 O   0  0  0  0  0  0  0  0  0  0  0  0
  -24.9810   45.6650    9.4190 C   0  0  0  0  0  0  0  0  0  0  0  0
  -27.1090   44.3260   12.7280 N   0  0  0  0  0  0  0  0  0  0  0  0
  -26.1300   46.2870    9.7830 C   0  0  0  0  0  0  0  0  0  0  0  0
  -26.8580   45.8470   10.9120 C   0  0  0  0  0  0  0  0  0  0  0  0
  -26.3770   44.7690   11.6450 C   0  0  0  0  0  0  0  0  0  0  0  0
  -25.1650   44.0920   11.2780 C   0  0  0  0  0  0  0  0  0  0  0  0
  -23.2700   43.0170    9.9150 H   0  0  0  0  0  0  0  0  0  0  0  0
  -22.5010   44.3950   10.1460 H   0  0  0  0  0  0  0  0  0  0  0  0
  -23.1550   44.0710    8.7300 H   0  0  0  0  0  0  0  0  0  0  0  0
  -24.4940   45.9690    8.6680 H   0  0  0  0  0  0  0  0  0  0  0  0
  -27.6600   46.2750   11.1640 H   0  0  0  0  0  0  0  0  0  0  0  0
  -26.8390   43.6500   13.1850 H   0  0  0  0  0  0  0  0  0  0  0  0
  -27.8560   44.7580   12.9480 H   0  0  0  0  0  0  0  0  0  0  0  0
  2  3  1  0  0  0  0
  2 11  1  0  0  0  0
  2 12  1  0  0  0  0
  2 13  1  0  0  0  0
  3  5  4  0  0  0  0
  3 10  4  0  0  0  0
  4 10  2  0  0  0  0
  5  7  4  0  0  0  0
  5 14  1  0  0  0  0
  6  9  1  0  0  0  0
  6 16  1  0  0  0  0
  6 17  1  0  0  0  0
  1  7  1  0  0  0  0
  7  8  4  0  0  0  0
  8  9  4  0  0  0  0
  8 15  1  0  0  0  0
  9 10  4  0  0  0  0
M  END
$$$$
